* NGSPICE file created from user_analog_project_wrapper.ext - technology: sky130A

.subckt sky130_fd_pr__nfet_01v8_67HSAK a_n33_n50# a_63_n50# a_n125_n50# a_n63_n76#
+ VSUBS
X0 a_n33_n50# a_n63_n76# a_n125_n50# VSUBS sky130_fd_pr__nfet_01v8 ad=1.65e+11p pd=1.66e+06u as=1.55e+11p ps=1.62e+06u w=500000u l=150000u
X1 a_63_n50# a_n63_n76# a_n33_n50# VSUBS sky130_fd_pr__nfet_01v8 ad=1.55e+11p pd=1.62e+06u as=0p ps=0u w=500000u l=150000u
.ends

.subckt sky130_fd_pr__pfet_01v8_MGALHN a_15_n136# a_n33_95# a_n73_n136# w_n109_n198#
X0 a_15_n136# a_n33_95# a_n73_n136# w_n109_n198# sky130_fd_pr__pfet_01v8 ad=2.9e+11p pd=2.58e+06u as=2.9e+11p ps=2.58e+06u w=1e+06u l=150000u
.ends

.subckt Liza_enable ENinverted EN Vin Vout XM1/w_n109_n198# VSUBS
Xsky130_fd_pr__nfet_01v8_67HSAK_0 Vin Vout Vout EN VSUBS sky130_fd_pr__nfet_01v8_67HSAK
XXM1 Vout ENinverted Vin XM1/w_n109_n198# sky130_fd_pr__pfet_01v8_MGALHN
.ends

.subckt sky130_fd_pr__cap_mim_m3_1_3RKQ3N c1_n2050_n2500# m3_n2150_n2600#
X0 c1_n2050_n2500# m3_n2150_n2600# sky130_fd_pr__cap_mim_m3_1 l=2.5e+07u w=2e+07u
.ends

.subckt sky130_fd_pr__pfet_01v8_J2H2S6 a_n989_n18062# w_n1127_n18281# a_n945_n11000#
+ a_n897_n18062#
X0 a_n897_n18062# a_n945_n11000# a_n989_n18062# w_n1127_n18281# sky130_fd_pr__pfet_01v8 ad=5.61e+14p pd=3.466e+09u as=6.103e+14p ps=3.8118e+09u w=1.7e+07u l=150000u
X1 a_n897_n18062# a_n945_n11000# a_n989_n18062# w_n1127_n18281# sky130_fd_pr__pfet_01v8 ad=0p pd=0u as=0p ps=0u w=1.7e+07u l=150000u
X2 a_n897_n18062# a_n945_n11000# a_n989_n18062# w_n1127_n18281# sky130_fd_pr__pfet_01v8 ad=0p pd=0u as=0p ps=0u w=1.7e+07u l=150000u
X3 a_n897_n18062# a_n945_n11000# a_n989_n18062# w_n1127_n18281# sky130_fd_pr__pfet_01v8 ad=0p pd=0u as=0p ps=0u w=1.7e+07u l=150000u
X4 a_n989_n18062# a_n945_n11000# a_n897_n18062# w_n1127_n18281# sky130_fd_pr__pfet_01v8 ad=0p pd=0u as=0p ps=0u w=1.7e+07u l=150000u
X5 a_n989_n18062# a_n945_n11000# a_n897_n18062# w_n1127_n18281# sky130_fd_pr__pfet_01v8 ad=0p pd=0u as=0p ps=0u w=1.7e+07u l=150000u
X6 a_n989_n18062# a_n945_n11000# a_n897_n18062# w_n1127_n18281# sky130_fd_pr__pfet_01v8 ad=0p pd=0u as=0p ps=0u w=1.7e+07u l=150000u
X7 a_n989_n18062# a_n945_n11000# a_n897_n18062# w_n1127_n18281# sky130_fd_pr__pfet_01v8 ad=0p pd=0u as=0p ps=0u w=1.7e+07u l=150000u
X8 a_n897_n18062# a_n945_n11000# a_n989_n18062# w_n1127_n18281# sky130_fd_pr__pfet_01v8 ad=0p pd=0u as=0p ps=0u w=1.7e+07u l=150000u
X9 a_n989_n18062# a_n945_n11000# a_n897_n18062# w_n1127_n18281# sky130_fd_pr__pfet_01v8 ad=0p pd=0u as=0p ps=0u w=1.7e+07u l=150000u
X10 a_n897_n18062# a_n945_n11000# a_n989_n18062# w_n1127_n18281# sky130_fd_pr__pfet_01v8 ad=0p pd=0u as=0p ps=0u w=1.7e+07u l=150000u
X11 a_n989_n18062# a_n945_n11000# a_n897_n18062# w_n1127_n18281# sky130_fd_pr__pfet_01v8 ad=0p pd=0u as=0p ps=0u w=1.7e+07u l=150000u
X12 a_n989_n18062# a_n945_n11000# a_n897_n18062# w_n1127_n18281# sky130_fd_pr__pfet_01v8 ad=0p pd=0u as=0p ps=0u w=1.7e+07u l=150000u
X13 a_n989_n18062# a_n945_n11000# a_n897_n18062# w_n1127_n18281# sky130_fd_pr__pfet_01v8 ad=0p pd=0u as=0p ps=0u w=1.7e+07u l=150000u
X14 a_n989_n18062# a_n945_n11000# a_n897_n18062# w_n1127_n18281# sky130_fd_pr__pfet_01v8 ad=0p pd=0u as=0p ps=0u w=1.7e+07u l=150000u
X15 a_n989_n18062# a_n945_n11000# a_n897_n18062# w_n1127_n18281# sky130_fd_pr__pfet_01v8 ad=0p pd=0u as=0p ps=0u w=1.7e+07u l=150000u
X16 a_n989_n18062# a_n945_n11000# a_n897_n18062# w_n1127_n18281# sky130_fd_pr__pfet_01v8 ad=0p pd=0u as=0p ps=0u w=1.7e+07u l=150000u
X17 a_n989_n18062# a_n945_n11000# a_n897_n18062# w_n1127_n18281# sky130_fd_pr__pfet_01v8 ad=0p pd=0u as=0p ps=0u w=1.7e+07u l=150000u
X18 a_n989_n18062# a_n945_n11000# a_n897_n18062# w_n1127_n18281# sky130_fd_pr__pfet_01v8 ad=0p pd=0u as=0p ps=0u w=1.7e+07u l=150000u
X19 a_n897_n18062# a_n945_n11000# a_n989_n18062# w_n1127_n18281# sky130_fd_pr__pfet_01v8 ad=0p pd=0u as=0p ps=0u w=1.7e+07u l=150000u
X20 a_n897_n18062# a_n945_n11000# a_n989_n18062# w_n1127_n18281# sky130_fd_pr__pfet_01v8 ad=0p pd=0u as=0p ps=0u w=1.7e+07u l=150000u
X21 a_n897_n18062# a_n945_n11000# a_n989_n18062# w_n1127_n18281# sky130_fd_pr__pfet_01v8 ad=0p pd=0u as=0p ps=0u w=1.7e+07u l=150000u
X22 a_n897_n18062# a_n945_n11000# a_n989_n18062# w_n1127_n18281# sky130_fd_pr__pfet_01v8 ad=0p pd=0u as=0p ps=0u w=1.7e+07u l=150000u
X23 a_n989_n18062# a_n945_n11000# a_n897_n18062# w_n1127_n18281# sky130_fd_pr__pfet_01v8 ad=0p pd=0u as=0p ps=0u w=1.7e+07u l=150000u
X24 a_n989_n18062# a_n945_n11000# a_n897_n18062# w_n1127_n18281# sky130_fd_pr__pfet_01v8 ad=0p pd=0u as=0p ps=0u w=1.7e+07u l=150000u
X25 a_n989_n18062# a_n945_n11000# a_n897_n18062# w_n1127_n18281# sky130_fd_pr__pfet_01v8 ad=0p pd=0u as=0p ps=0u w=1.7e+07u l=150000u
X26 a_n897_n18062# a_n945_n11000# a_n989_n18062# w_n1127_n18281# sky130_fd_pr__pfet_01v8 ad=0p pd=0u as=0p ps=0u w=1.7e+07u l=150000u
X27 a_n897_n18062# a_n945_n11000# a_n989_n18062# w_n1127_n18281# sky130_fd_pr__pfet_01v8 ad=0p pd=0u as=0p ps=0u w=1.7e+07u l=150000u
X28 a_n897_n18062# a_n945_n11000# a_n989_n18062# w_n1127_n18281# sky130_fd_pr__pfet_01v8 ad=0p pd=0u as=0p ps=0u w=1.7e+07u l=150000u
X29 a_n897_n18062# a_n945_n11000# a_n989_n18062# w_n1127_n18281# sky130_fd_pr__pfet_01v8 ad=0p pd=0u as=0p ps=0u w=1.7e+07u l=150000u
X30 a_n897_n18062# a_n945_n11000# a_n989_n18062# w_n1127_n18281# sky130_fd_pr__pfet_01v8 ad=0p pd=0u as=0p ps=0u w=1.7e+07u l=150000u
X31 a_n897_n18062# a_n945_n11000# a_n989_n18062# w_n1127_n18281# sky130_fd_pr__pfet_01v8 ad=0p pd=0u as=0p ps=0u w=1.7e+07u l=150000u
X32 a_n897_n18062# a_n945_n11000# a_n989_n18062# w_n1127_n18281# sky130_fd_pr__pfet_01v8 ad=0p pd=0u as=0p ps=0u w=1.7e+07u l=150000u
X33 a_n897_n18062# a_n945_n11000# a_n989_n18062# w_n1127_n18281# sky130_fd_pr__pfet_01v8 ad=0p pd=0u as=0p ps=0u w=1.7e+07u l=150000u
X34 a_n989_n18062# a_n945_n11000# a_n897_n18062# w_n1127_n18281# sky130_fd_pr__pfet_01v8 ad=0p pd=0u as=0p ps=0u w=1.7e+07u l=150000u
X35 a_n989_n18062# a_n945_n11000# a_n897_n18062# w_n1127_n18281# sky130_fd_pr__pfet_01v8 ad=0p pd=0u as=0p ps=0u w=1.7e+07u l=150000u
X36 a_n897_n18062# a_n945_n11000# a_n989_n18062# w_n1127_n18281# sky130_fd_pr__pfet_01v8 ad=0p pd=0u as=0p ps=0u w=1.7e+07u l=150000u
X37 a_n897_n18062# a_n945_n11000# a_n989_n18062# w_n1127_n18281# sky130_fd_pr__pfet_01v8 ad=0p pd=0u as=0p ps=0u w=1.7e+07u l=150000u
X38 a_n897_n18062# a_n945_n11000# a_n989_n18062# w_n1127_n18281# sky130_fd_pr__pfet_01v8 ad=0p pd=0u as=0p ps=0u w=1.7e+07u l=150000u
X39 a_n897_n18062# a_n945_n11000# a_n989_n18062# w_n1127_n18281# sky130_fd_pr__pfet_01v8 ad=0p pd=0u as=0p ps=0u w=1.7e+07u l=150000u
X40 a_n989_n18062# a_n945_n11000# a_n897_n18062# w_n1127_n18281# sky130_fd_pr__pfet_01v8 ad=0p pd=0u as=0p ps=0u w=1.7e+07u l=150000u
X41 a_n989_n18062# a_n945_n11000# a_n897_n18062# w_n1127_n18281# sky130_fd_pr__pfet_01v8 ad=0p pd=0u as=0p ps=0u w=1.7e+07u l=150000u
X42 a_n897_n18062# a_n945_n11000# a_n989_n18062# w_n1127_n18281# sky130_fd_pr__pfet_01v8 ad=0p pd=0u as=0p ps=0u w=1.7e+07u l=150000u
X43 a_n897_n18062# a_n945_n11000# a_n989_n18062# w_n1127_n18281# sky130_fd_pr__pfet_01v8 ad=0p pd=0u as=0p ps=0u w=1.7e+07u l=150000u
X44 a_n989_n18062# a_n945_n11000# a_n897_n18062# w_n1127_n18281# sky130_fd_pr__pfet_01v8 ad=0p pd=0u as=0p ps=0u w=1.7e+07u l=150000u
X45 a_n989_n18062# a_n945_n11000# a_n897_n18062# w_n1127_n18281# sky130_fd_pr__pfet_01v8 ad=0p pd=0u as=0p ps=0u w=1.7e+07u l=150000u
X46 a_n989_n18062# a_n945_n11000# a_n897_n18062# w_n1127_n18281# sky130_fd_pr__pfet_01v8 ad=0p pd=0u as=0p ps=0u w=1.7e+07u l=150000u
X47 a_n989_n18062# a_n945_n11000# a_n897_n18062# w_n1127_n18281# sky130_fd_pr__pfet_01v8 ad=0p pd=0u as=0p ps=0u w=1.7e+07u l=150000u
X48 a_n989_n18062# a_n945_n11000# a_n897_n18062# w_n1127_n18281# sky130_fd_pr__pfet_01v8 ad=0p pd=0u as=0p ps=0u w=1.7e+07u l=150000u
X49 a_n989_n18062# a_n945_n11000# a_n897_n18062# w_n1127_n18281# sky130_fd_pr__pfet_01v8 ad=0p pd=0u as=0p ps=0u w=1.7e+07u l=150000u
X50 a_n897_n18062# a_n945_n11000# a_n989_n18062# w_n1127_n18281# sky130_fd_pr__pfet_01v8 ad=0p pd=0u as=0p ps=0u w=1.7e+07u l=150000u
X51 a_n989_n18062# a_n945_n11000# a_n897_n18062# w_n1127_n18281# sky130_fd_pr__pfet_01v8 ad=0p pd=0u as=0p ps=0u w=1.7e+07u l=150000u
X52 a_n897_n18062# a_n945_n11000# a_n989_n18062# w_n1127_n18281# sky130_fd_pr__pfet_01v8 ad=0p pd=0u as=0p ps=0u w=1.7e+07u l=150000u
X53 a_n897_n18062# a_n945_n11000# a_n989_n18062# w_n1127_n18281# sky130_fd_pr__pfet_01v8 ad=0p pd=0u as=0p ps=0u w=1.7e+07u l=150000u
X54 a_n989_n18062# a_n945_n11000# a_n897_n18062# w_n1127_n18281# sky130_fd_pr__pfet_01v8 ad=0p pd=0u as=0p ps=0u w=1.7e+07u l=150000u
X55 a_n897_n18062# a_n945_n11000# a_n989_n18062# w_n1127_n18281# sky130_fd_pr__pfet_01v8 ad=0p pd=0u as=0p ps=0u w=1.7e+07u l=150000u
X56 a_n897_n18062# a_n945_n11000# a_n989_n18062# w_n1127_n18281# sky130_fd_pr__pfet_01v8 ad=0p pd=0u as=0p ps=0u w=1.7e+07u l=150000u
X57 a_n989_n18062# a_n945_n11000# a_n897_n18062# w_n1127_n18281# sky130_fd_pr__pfet_01v8 ad=0p pd=0u as=0p ps=0u w=1.7e+07u l=150000u
X58 a_n989_n18062# a_n945_n11000# a_n897_n18062# w_n1127_n18281# sky130_fd_pr__pfet_01v8 ad=0p pd=0u as=0p ps=0u w=1.7e+07u l=150000u
X59 a_n989_n18062# a_n945_n11000# a_n897_n18062# w_n1127_n18281# sky130_fd_pr__pfet_01v8 ad=0p pd=0u as=0p ps=0u w=1.7e+07u l=150000u
X60 a_n897_n18062# a_n945_n11000# a_n989_n18062# w_n1127_n18281# sky130_fd_pr__pfet_01v8 ad=0p pd=0u as=0p ps=0u w=1.7e+07u l=150000u
X61 a_n897_n18062# a_n945_n11000# a_n989_n18062# w_n1127_n18281# sky130_fd_pr__pfet_01v8 ad=0p pd=0u as=0p ps=0u w=1.7e+07u l=150000u
X62 a_n897_n18062# a_n945_n11000# a_n989_n18062# w_n1127_n18281# sky130_fd_pr__pfet_01v8 ad=0p pd=0u as=0p ps=0u w=1.7e+07u l=150000u
X63 a_n989_n18062# a_n945_n11000# a_n897_n18062# w_n1127_n18281# sky130_fd_pr__pfet_01v8 ad=0p pd=0u as=0p ps=0u w=1.7e+07u l=150000u
X64 a_n897_n18062# a_n945_n11000# a_n989_n18062# w_n1127_n18281# sky130_fd_pr__pfet_01v8 ad=0p pd=0u as=0p ps=0u w=1.7e+07u l=150000u
X65 a_n897_n18062# a_n945_n11000# a_n989_n18062# w_n1127_n18281# sky130_fd_pr__pfet_01v8 ad=0p pd=0u as=0p ps=0u w=1.7e+07u l=150000u
X66 a_n897_n18062# a_n945_n11000# a_n989_n18062# w_n1127_n18281# sky130_fd_pr__pfet_01v8 ad=0p pd=0u as=0p ps=0u w=1.7e+07u l=150000u
X67 a_n989_n18062# a_n945_n11000# a_n897_n18062# w_n1127_n18281# sky130_fd_pr__pfet_01v8 ad=0p pd=0u as=0p ps=0u w=1.7e+07u l=150000u
X68 a_n897_n18062# a_n945_n11000# a_n989_n18062# w_n1127_n18281# sky130_fd_pr__pfet_01v8 ad=0p pd=0u as=0p ps=0u w=1.7e+07u l=150000u
X69 a_n989_n18062# a_n945_n11000# a_n897_n18062# w_n1127_n18281# sky130_fd_pr__pfet_01v8 ad=0p pd=0u as=0p ps=0u w=1.7e+07u l=150000u
X70 a_n989_n18062# a_n945_n11000# a_n897_n18062# w_n1127_n18281# sky130_fd_pr__pfet_01v8 ad=0p pd=0u as=0p ps=0u w=1.7e+07u l=150000u
X71 a_n989_n18062# a_n945_n11000# a_n897_n18062# w_n1127_n18281# sky130_fd_pr__pfet_01v8 ad=0p pd=0u as=0p ps=0u w=1.7e+07u l=150000u
X72 a_n989_n18062# a_n945_n11000# a_n897_n18062# w_n1127_n18281# sky130_fd_pr__pfet_01v8 ad=0p pd=0u as=0p ps=0u w=1.7e+07u l=150000u
X73 a_n897_n18062# a_n945_n11000# a_n989_n18062# w_n1127_n18281# sky130_fd_pr__pfet_01v8 ad=0p pd=0u as=0p ps=0u w=1.7e+07u l=150000u
X74 a_n989_n18062# a_n945_n11000# a_n897_n18062# w_n1127_n18281# sky130_fd_pr__pfet_01v8 ad=0p pd=0u as=0p ps=0u w=1.7e+07u l=150000u
X75 a_n989_n18062# a_n945_n11000# a_n897_n18062# w_n1127_n18281# sky130_fd_pr__pfet_01v8 ad=0p pd=0u as=0p ps=0u w=1.7e+07u l=150000u
X76 a_n897_n18062# a_n945_n11000# a_n989_n18062# w_n1127_n18281# sky130_fd_pr__pfet_01v8 ad=0p pd=0u as=0p ps=0u w=1.7e+07u l=150000u
X77 a_n989_n18062# a_n945_n11000# a_n897_n18062# w_n1127_n18281# sky130_fd_pr__pfet_01v8 ad=0p pd=0u as=0p ps=0u w=1.7e+07u l=150000u
X78 a_n989_n18062# a_n945_n11000# a_n897_n18062# w_n1127_n18281# sky130_fd_pr__pfet_01v8 ad=0p pd=0u as=0p ps=0u w=1.7e+07u l=150000u
X79 a_n989_n18062# a_n945_n11000# a_n897_n18062# w_n1127_n18281# sky130_fd_pr__pfet_01v8 ad=0p pd=0u as=0p ps=0u w=1.7e+07u l=150000u
X80 a_n989_n18062# a_n945_n11000# a_n897_n18062# w_n1127_n18281# sky130_fd_pr__pfet_01v8 ad=0p pd=0u as=0p ps=0u w=1.7e+07u l=150000u
X81 a_n897_n18062# a_n945_n11000# a_n989_n18062# w_n1127_n18281# sky130_fd_pr__pfet_01v8 ad=0p pd=0u as=0p ps=0u w=1.7e+07u l=150000u
X82 a_n897_n18062# a_n945_n11000# a_n989_n18062# w_n1127_n18281# sky130_fd_pr__pfet_01v8 ad=0p pd=0u as=0p ps=0u w=1.7e+07u l=150000u
X83 a_n897_n18062# a_n945_n11000# a_n989_n18062# w_n1127_n18281# sky130_fd_pr__pfet_01v8 ad=0p pd=0u as=0p ps=0u w=1.7e+07u l=150000u
X84 a_n989_n18062# a_n945_n11000# a_n897_n18062# w_n1127_n18281# sky130_fd_pr__pfet_01v8 ad=0p pd=0u as=0p ps=0u w=1.7e+07u l=150000u
X85 a_n897_n18062# a_n945_n11000# a_n989_n18062# w_n1127_n18281# sky130_fd_pr__pfet_01v8 ad=0p pd=0u as=0p ps=0u w=1.7e+07u l=150000u
X86 a_n897_n18062# a_n945_n11000# a_n989_n18062# w_n1127_n18281# sky130_fd_pr__pfet_01v8 ad=0p pd=0u as=0p ps=0u w=1.7e+07u l=150000u
X87 a_n989_n18062# a_n945_n11000# a_n897_n18062# w_n1127_n18281# sky130_fd_pr__pfet_01v8 ad=0p pd=0u as=0p ps=0u w=1.7e+07u l=150000u
X88 a_n897_n18062# a_n945_n11000# a_n989_n18062# w_n1127_n18281# sky130_fd_pr__pfet_01v8 ad=0p pd=0u as=0p ps=0u w=1.7e+07u l=150000u
X89 a_n897_n18062# a_n945_n11000# a_n989_n18062# w_n1127_n18281# sky130_fd_pr__pfet_01v8 ad=0p pd=0u as=0p ps=0u w=1.7e+07u l=150000u
X90 a_n897_n18062# a_n945_n11000# a_n989_n18062# w_n1127_n18281# sky130_fd_pr__pfet_01v8 ad=0p pd=0u as=0p ps=0u w=1.7e+07u l=150000u
X91 a_n897_n18062# a_n945_n11000# a_n989_n18062# w_n1127_n18281# sky130_fd_pr__pfet_01v8 ad=0p pd=0u as=0p ps=0u w=1.7e+07u l=150000u
X92 a_n989_n18062# a_n945_n11000# a_n897_n18062# w_n1127_n18281# sky130_fd_pr__pfet_01v8 ad=0p pd=0u as=0p ps=0u w=1.7e+07u l=150000u
X93 a_n897_n18062# a_n945_n11000# a_n989_n18062# w_n1127_n18281# sky130_fd_pr__pfet_01v8 ad=0p pd=0u as=0p ps=0u w=1.7e+07u l=150000u
X94 a_n989_n18062# a_n945_n11000# a_n897_n18062# w_n1127_n18281# sky130_fd_pr__pfet_01v8 ad=0p pd=0u as=0p ps=0u w=1.7e+07u l=150000u
X95 a_n989_n18062# a_n945_n11000# a_n897_n18062# w_n1127_n18281# sky130_fd_pr__pfet_01v8 ad=0p pd=0u as=0p ps=0u w=1.7e+07u l=150000u
X96 a_n989_n18062# a_n945_n11000# a_n897_n18062# w_n1127_n18281# sky130_fd_pr__pfet_01v8 ad=0p pd=0u as=0p ps=0u w=1.7e+07u l=150000u
X97 a_n989_n18062# a_n945_n11000# a_n897_n18062# w_n1127_n18281# sky130_fd_pr__pfet_01v8 ad=0p pd=0u as=0p ps=0u w=1.7e+07u l=150000u
X98 a_n989_n18062# a_n945_n11000# a_n897_n18062# w_n1127_n18281# sky130_fd_pr__pfet_01v8 ad=0p pd=0u as=0p ps=0u w=1.7e+07u l=150000u
X99 a_n897_n18062# a_n945_n11000# a_n989_n18062# w_n1127_n18281# sky130_fd_pr__pfet_01v8 ad=0p pd=0u as=0p ps=0u w=1.7e+07u l=150000u
X100 a_n897_n18062# a_n945_n11000# a_n989_n18062# w_n1127_n18281# sky130_fd_pr__pfet_01v8 ad=0p pd=0u as=0p ps=0u w=1.7e+07u l=150000u
X101 a_n989_n18062# a_n945_n11000# a_n897_n18062# w_n1127_n18281# sky130_fd_pr__pfet_01v8 ad=0p pd=0u as=0p ps=0u w=1.7e+07u l=150000u
X102 a_n989_n18062# a_n945_n11000# a_n897_n18062# w_n1127_n18281# sky130_fd_pr__pfet_01v8 ad=0p pd=0u as=0p ps=0u w=1.7e+07u l=150000u
X103 a_n897_n18062# a_n945_n11000# a_n989_n18062# w_n1127_n18281# sky130_fd_pr__pfet_01v8 ad=0p pd=0u as=0p ps=0u w=1.7e+07u l=150000u
X104 a_n989_n18062# a_n945_n11000# a_n897_n18062# w_n1127_n18281# sky130_fd_pr__pfet_01v8 ad=0p pd=0u as=0p ps=0u w=1.7e+07u l=150000u
X105 a_n989_n18062# a_n945_n11000# a_n897_n18062# w_n1127_n18281# sky130_fd_pr__pfet_01v8 ad=0p pd=0u as=0p ps=0u w=1.7e+07u l=150000u
X106 a_n989_n18062# a_n945_n11000# a_n897_n18062# w_n1127_n18281# sky130_fd_pr__pfet_01v8 ad=0p pd=0u as=0p ps=0u w=1.7e+07u l=150000u
X107 a_n989_n18062# a_n945_n11000# a_n897_n18062# w_n1127_n18281# sky130_fd_pr__pfet_01v8 ad=0p pd=0u as=0p ps=0u w=1.7e+07u l=150000u
X108 a_n989_n18062# a_n945_n11000# a_n897_n18062# w_n1127_n18281# sky130_fd_pr__pfet_01v8 ad=0p pd=0u as=0p ps=0u w=1.7e+07u l=150000u
X109 a_n897_n18062# a_n945_n11000# a_n989_n18062# w_n1127_n18281# sky130_fd_pr__pfet_01v8 ad=0p pd=0u as=0p ps=0u w=1.7e+07u l=150000u
X110 a_n989_n18062# a_n945_n11000# a_n897_n18062# w_n1127_n18281# sky130_fd_pr__pfet_01v8 ad=0p pd=0u as=0p ps=0u w=1.7e+07u l=150000u
X111 a_n897_n18062# a_n945_n11000# a_n989_n18062# w_n1127_n18281# sky130_fd_pr__pfet_01v8 ad=0p pd=0u as=0p ps=0u w=1.7e+07u l=150000u
X112 a_n897_n18062# a_n945_n11000# a_n989_n18062# w_n1127_n18281# sky130_fd_pr__pfet_01v8 ad=0p pd=0u as=0p ps=0u w=1.7e+07u l=150000u
X113 a_n897_n18062# a_n945_n11000# a_n989_n18062# w_n1127_n18281# sky130_fd_pr__pfet_01v8 ad=0p pd=0u as=0p ps=0u w=1.7e+07u l=150000u
X114 a_n989_n18062# a_n945_n11000# a_n897_n18062# w_n1127_n18281# sky130_fd_pr__pfet_01v8 ad=0p pd=0u as=0p ps=0u w=1.7e+07u l=150000u
X115 a_n897_n18062# a_n945_n11000# a_n989_n18062# w_n1127_n18281# sky130_fd_pr__pfet_01v8 ad=0p pd=0u as=0p ps=0u w=1.7e+07u l=150000u
X116 a_n897_n18062# a_n945_n11000# a_n989_n18062# w_n1127_n18281# sky130_fd_pr__pfet_01v8 ad=0p pd=0u as=0p ps=0u w=1.7e+07u l=150000u
X117 a_n897_n18062# a_n945_n11000# a_n989_n18062# w_n1127_n18281# sky130_fd_pr__pfet_01v8 ad=0p pd=0u as=0p ps=0u w=1.7e+07u l=150000u
X118 a_n897_n18062# a_n945_n11000# a_n989_n18062# w_n1127_n18281# sky130_fd_pr__pfet_01v8 ad=0p pd=0u as=0p ps=0u w=1.7e+07u l=150000u
X119 a_n989_n18062# a_n945_n11000# a_n897_n18062# w_n1127_n18281# sky130_fd_pr__pfet_01v8 ad=0p pd=0u as=0p ps=0u w=1.7e+07u l=150000u
X120 a_n989_n18062# a_n945_n11000# a_n897_n18062# w_n1127_n18281# sky130_fd_pr__pfet_01v8 ad=0p pd=0u as=0p ps=0u w=1.7e+07u l=150000u
X121 a_n897_n18062# a_n945_n11000# a_n989_n18062# w_n1127_n18281# sky130_fd_pr__pfet_01v8 ad=0p pd=0u as=0p ps=0u w=1.7e+07u l=150000u
X122 a_n989_n18062# a_n945_n11000# a_n897_n18062# w_n1127_n18281# sky130_fd_pr__pfet_01v8 ad=0p pd=0u as=0p ps=0u w=1.7e+07u l=150000u
X123 a_n989_n18062# a_n945_n11000# a_n897_n18062# w_n1127_n18281# sky130_fd_pr__pfet_01v8 ad=0p pd=0u as=0p ps=0u w=1.7e+07u l=150000u
X124 a_n897_n18062# a_n945_n11000# a_n989_n18062# w_n1127_n18281# sky130_fd_pr__pfet_01v8 ad=0p pd=0u as=0p ps=0u w=1.7e+07u l=150000u
X125 a_n989_n18062# a_n945_n11000# a_n897_n18062# w_n1127_n18281# sky130_fd_pr__pfet_01v8 ad=0p pd=0u as=0p ps=0u w=1.7e+07u l=150000u
X126 a_n989_n18062# a_n945_n11000# a_n897_n18062# w_n1127_n18281# sky130_fd_pr__pfet_01v8 ad=0p pd=0u as=0p ps=0u w=1.7e+07u l=150000u
X127 a_n897_n18062# a_n945_n11000# a_n989_n18062# w_n1127_n18281# sky130_fd_pr__pfet_01v8 ad=0p pd=0u as=0p ps=0u w=1.7e+07u l=150000u
X128 a_n989_n18062# a_n945_n11000# a_n897_n18062# w_n1127_n18281# sky130_fd_pr__pfet_01v8 ad=0p pd=0u as=0p ps=0u w=1.7e+07u l=150000u
X129 a_n897_n18062# a_n945_n11000# a_n989_n18062# w_n1127_n18281# sky130_fd_pr__pfet_01v8 ad=0p pd=0u as=0p ps=0u w=1.7e+07u l=150000u
X130 a_n897_n18062# a_n945_n11000# a_n989_n18062# w_n1127_n18281# sky130_fd_pr__pfet_01v8 ad=0p pd=0u as=0p ps=0u w=1.7e+07u l=150000u
X131 a_n897_n18062# a_n945_n11000# a_n989_n18062# w_n1127_n18281# sky130_fd_pr__pfet_01v8 ad=0p pd=0u as=0p ps=0u w=1.7e+07u l=150000u
X132 a_n989_n18062# a_n945_n11000# a_n897_n18062# w_n1127_n18281# sky130_fd_pr__pfet_01v8 ad=0p pd=0u as=0p ps=0u w=1.7e+07u l=150000u
X133 a_n897_n18062# a_n945_n11000# a_n989_n18062# w_n1127_n18281# sky130_fd_pr__pfet_01v8 ad=0p pd=0u as=0p ps=0u w=1.7e+07u l=150000u
X134 a_n897_n18062# a_n945_n11000# a_n989_n18062# w_n1127_n18281# sky130_fd_pr__pfet_01v8 ad=0p pd=0u as=0p ps=0u w=1.7e+07u l=150000u
X135 a_n897_n18062# a_n945_n11000# a_n989_n18062# w_n1127_n18281# sky130_fd_pr__pfet_01v8 ad=0p pd=0u as=0p ps=0u w=1.7e+07u l=150000u
X136 a_n897_n18062# a_n945_n11000# a_n989_n18062# w_n1127_n18281# sky130_fd_pr__pfet_01v8 ad=0p pd=0u as=0p ps=0u w=1.7e+07u l=150000u
X137 a_n897_n18062# a_n945_n11000# a_n989_n18062# w_n1127_n18281# sky130_fd_pr__pfet_01v8 ad=0p pd=0u as=0p ps=0u w=1.7e+07u l=150000u
X138 a_n897_n18062# a_n945_n11000# a_n989_n18062# w_n1127_n18281# sky130_fd_pr__pfet_01v8 ad=0p pd=0u as=0p ps=0u w=1.7e+07u l=150000u
X139 a_n897_n18062# a_n945_n11000# a_n989_n18062# w_n1127_n18281# sky130_fd_pr__pfet_01v8 ad=0p pd=0u as=0p ps=0u w=1.7e+07u l=150000u
X140 a_n897_n18062# a_n945_n11000# a_n989_n18062# w_n1127_n18281# sky130_fd_pr__pfet_01v8 ad=0p pd=0u as=0p ps=0u w=1.7e+07u l=150000u
X141 a_n989_n18062# a_n945_n11000# a_n897_n18062# w_n1127_n18281# sky130_fd_pr__pfet_01v8 ad=0p pd=0u as=0p ps=0u w=1.7e+07u l=150000u
X142 a_n989_n18062# a_n945_n11000# a_n897_n18062# w_n1127_n18281# sky130_fd_pr__pfet_01v8 ad=0p pd=0u as=0p ps=0u w=1.7e+07u l=150000u
X143 a_n989_n18062# a_n945_n11000# a_n897_n18062# w_n1127_n18281# sky130_fd_pr__pfet_01v8 ad=0p pd=0u as=0p ps=0u w=1.7e+07u l=150000u
X144 a_n989_n18062# a_n945_n11000# a_n897_n18062# w_n1127_n18281# sky130_fd_pr__pfet_01v8 ad=0p pd=0u as=0p ps=0u w=1.7e+07u l=150000u
X145 a_n989_n18062# a_n945_n11000# a_n897_n18062# w_n1127_n18281# sky130_fd_pr__pfet_01v8 ad=0p pd=0u as=0p ps=0u w=1.7e+07u l=150000u
X146 a_n989_n18062# a_n945_n11000# a_n897_n18062# w_n1127_n18281# sky130_fd_pr__pfet_01v8 ad=0p pd=0u as=0p ps=0u w=1.7e+07u l=150000u
X147 a_n897_n18062# a_n945_n11000# a_n989_n18062# w_n1127_n18281# sky130_fd_pr__pfet_01v8 ad=0p pd=0u as=0p ps=0u w=1.7e+07u l=150000u
X148 a_n989_n18062# a_n945_n11000# a_n897_n18062# w_n1127_n18281# sky130_fd_pr__pfet_01v8 ad=0p pd=0u as=0p ps=0u w=1.7e+07u l=150000u
X149 a_n897_n18062# a_n945_n11000# a_n989_n18062# w_n1127_n18281# sky130_fd_pr__pfet_01v8 ad=0p pd=0u as=0p ps=0u w=1.7e+07u l=150000u
X150 a_n989_n18062# a_n945_n11000# a_n897_n18062# w_n1127_n18281# sky130_fd_pr__pfet_01v8 ad=0p pd=0u as=0p ps=0u w=1.7e+07u l=150000u
X151 a_n989_n18062# a_n945_n11000# a_n897_n18062# w_n1127_n18281# sky130_fd_pr__pfet_01v8 ad=0p pd=0u as=0p ps=0u w=1.7e+07u l=150000u
X152 a_n989_n18062# a_n945_n11000# a_n897_n18062# w_n1127_n18281# sky130_fd_pr__pfet_01v8 ad=0p pd=0u as=0p ps=0u w=1.7e+07u l=150000u
X153 a_n897_n18062# a_n945_n11000# a_n989_n18062# w_n1127_n18281# sky130_fd_pr__pfet_01v8 ad=0p pd=0u as=0p ps=0u w=1.7e+07u l=150000u
X154 a_n989_n18062# a_n945_n11000# a_n897_n18062# w_n1127_n18281# sky130_fd_pr__pfet_01v8 ad=0p pd=0u as=0p ps=0u w=1.7e+07u l=150000u
X155 a_n897_n18062# a_n945_n11000# a_n989_n18062# w_n1127_n18281# sky130_fd_pr__pfet_01v8 ad=0p pd=0u as=0p ps=0u w=1.7e+07u l=150000u
X156 a_n897_n18062# a_n945_n11000# a_n989_n18062# w_n1127_n18281# sky130_fd_pr__pfet_01v8 ad=0p pd=0u as=0p ps=0u w=1.7e+07u l=150000u
X157 a_n897_n18062# a_n945_n11000# a_n989_n18062# w_n1127_n18281# sky130_fd_pr__pfet_01v8 ad=0p pd=0u as=0p ps=0u w=1.7e+07u l=150000u
X158 a_n989_n18062# a_n945_n11000# a_n897_n18062# w_n1127_n18281# sky130_fd_pr__pfet_01v8 ad=0p pd=0u as=0p ps=0u w=1.7e+07u l=150000u
X159 a_n989_n18062# a_n945_n11000# a_n897_n18062# w_n1127_n18281# sky130_fd_pr__pfet_01v8 ad=0p pd=0u as=0p ps=0u w=1.7e+07u l=150000u
X160 a_n897_n18062# a_n945_n11000# a_n989_n18062# w_n1127_n18281# sky130_fd_pr__pfet_01v8 ad=0p pd=0u as=0p ps=0u w=1.7e+07u l=150000u
X161 a_n897_n18062# a_n945_n11000# a_n989_n18062# w_n1127_n18281# sky130_fd_pr__pfet_01v8 ad=0p pd=0u as=0p ps=0u w=1.7e+07u l=150000u
X162 a_n897_n18062# a_n945_n11000# a_n989_n18062# w_n1127_n18281# sky130_fd_pr__pfet_01v8 ad=0p pd=0u as=0p ps=0u w=1.7e+07u l=150000u
X163 a_n989_n18062# a_n945_n11000# a_n897_n18062# w_n1127_n18281# sky130_fd_pr__pfet_01v8 ad=0p pd=0u as=0p ps=0u w=1.7e+07u l=150000u
X164 a_n989_n18062# a_n945_n11000# a_n897_n18062# w_n1127_n18281# sky130_fd_pr__pfet_01v8 ad=0p pd=0u as=0p ps=0u w=1.7e+07u l=150000u
X165 a_n989_n18062# a_n945_n11000# a_n897_n18062# w_n1127_n18281# sky130_fd_pr__pfet_01v8 ad=0p pd=0u as=0p ps=0u w=1.7e+07u l=150000u
X166 a_n989_n18062# a_n945_n11000# a_n897_n18062# w_n1127_n18281# sky130_fd_pr__pfet_01v8 ad=0p pd=0u as=0p ps=0u w=1.7e+07u l=150000u
X167 a_n897_n18062# a_n945_n11000# a_n989_n18062# w_n1127_n18281# sky130_fd_pr__pfet_01v8 ad=0p pd=0u as=0p ps=0u w=1.7e+07u l=150000u
X168 a_n897_n18062# a_n945_n11000# a_n989_n18062# w_n1127_n18281# sky130_fd_pr__pfet_01v8 ad=0p pd=0u as=0p ps=0u w=1.7e+07u l=150000u
X169 a_n897_n18062# a_n945_n11000# a_n989_n18062# w_n1127_n18281# sky130_fd_pr__pfet_01v8 ad=0p pd=0u as=0p ps=0u w=1.7e+07u l=150000u
X170 a_n897_n18062# a_n945_n11000# a_n989_n18062# w_n1127_n18281# sky130_fd_pr__pfet_01v8 ad=0p pd=0u as=0p ps=0u w=1.7e+07u l=150000u
X171 a_n897_n18062# a_n945_n11000# a_n989_n18062# w_n1127_n18281# sky130_fd_pr__pfet_01v8 ad=0p pd=0u as=0p ps=0u w=1.7e+07u l=150000u
X172 a_n989_n18062# a_n945_n11000# a_n897_n18062# w_n1127_n18281# sky130_fd_pr__pfet_01v8 ad=0p pd=0u as=0p ps=0u w=1.7e+07u l=150000u
X173 a_n989_n18062# a_n945_n11000# a_n897_n18062# w_n1127_n18281# sky130_fd_pr__pfet_01v8 ad=0p pd=0u as=0p ps=0u w=1.7e+07u l=150000u
X174 a_n989_n18062# a_n945_n11000# a_n897_n18062# w_n1127_n18281# sky130_fd_pr__pfet_01v8 ad=0p pd=0u as=0p ps=0u w=1.7e+07u l=150000u
X175 a_n897_n18062# a_n945_n11000# a_n989_n18062# w_n1127_n18281# sky130_fd_pr__pfet_01v8 ad=0p pd=0u as=0p ps=0u w=1.7e+07u l=150000u
X176 a_n989_n18062# a_n945_n11000# a_n897_n18062# w_n1127_n18281# sky130_fd_pr__pfet_01v8 ad=0p pd=0u as=0p ps=0u w=1.7e+07u l=150000u
X177 a_n897_n18062# a_n945_n11000# a_n989_n18062# w_n1127_n18281# sky130_fd_pr__pfet_01v8 ad=0p pd=0u as=0p ps=0u w=1.7e+07u l=150000u
X178 a_n897_n18062# a_n945_n11000# a_n989_n18062# w_n1127_n18281# sky130_fd_pr__pfet_01v8 ad=0p pd=0u as=0p ps=0u w=1.7e+07u l=150000u
X179 a_n989_n18062# a_n945_n11000# a_n897_n18062# w_n1127_n18281# sky130_fd_pr__pfet_01v8 ad=0p pd=0u as=0p ps=0u w=1.7e+07u l=150000u
X180 a_n989_n18062# a_n945_n11000# a_n897_n18062# w_n1127_n18281# sky130_fd_pr__pfet_01v8 ad=0p pd=0u as=0p ps=0u w=1.7e+07u l=150000u
X181 a_n897_n18062# a_n945_n11000# a_n989_n18062# w_n1127_n18281# sky130_fd_pr__pfet_01v8 ad=0p pd=0u as=0p ps=0u w=1.7e+07u l=150000u
X182 a_n897_n18062# a_n945_n11000# a_n989_n18062# w_n1127_n18281# sky130_fd_pr__pfet_01v8 ad=0p pd=0u as=0p ps=0u w=1.7e+07u l=150000u
X183 a_n989_n18062# a_n945_n11000# a_n897_n18062# w_n1127_n18281# sky130_fd_pr__pfet_01v8 ad=0p pd=0u as=0p ps=0u w=1.7e+07u l=150000u
X184 a_n989_n18062# a_n945_n11000# a_n897_n18062# w_n1127_n18281# sky130_fd_pr__pfet_01v8 ad=0p pd=0u as=0p ps=0u w=1.7e+07u l=150000u
X185 a_n897_n18062# a_n945_n11000# a_n989_n18062# w_n1127_n18281# sky130_fd_pr__pfet_01v8 ad=0p pd=0u as=0p ps=0u w=1.7e+07u l=150000u
X186 a_n989_n18062# a_n945_n11000# a_n897_n18062# w_n1127_n18281# sky130_fd_pr__pfet_01v8 ad=0p pd=0u as=0p ps=0u w=1.7e+07u l=150000u
X187 a_n989_n18062# a_n945_n11000# a_n897_n18062# w_n1127_n18281# sky130_fd_pr__pfet_01v8 ad=0p pd=0u as=0p ps=0u w=1.7e+07u l=150000u
X188 a_n989_n18062# a_n945_n11000# a_n897_n18062# w_n1127_n18281# sky130_fd_pr__pfet_01v8 ad=0p pd=0u as=0p ps=0u w=1.7e+07u l=150000u
X189 a_n989_n18062# a_n945_n11000# a_n897_n18062# w_n1127_n18281# sky130_fd_pr__pfet_01v8 ad=0p pd=0u as=0p ps=0u w=1.7e+07u l=150000u
X190 a_n897_n18062# a_n945_n11000# a_n989_n18062# w_n1127_n18281# sky130_fd_pr__pfet_01v8 ad=0p pd=0u as=0p ps=0u w=1.7e+07u l=150000u
X191 a_n897_n18062# a_n945_n11000# a_n989_n18062# w_n1127_n18281# sky130_fd_pr__pfet_01v8 ad=0p pd=0u as=0p ps=0u w=1.7e+07u l=150000u
X192 a_n989_n18062# a_n945_n11000# a_n897_n18062# w_n1127_n18281# sky130_fd_pr__pfet_01v8 ad=0p pd=0u as=0p ps=0u w=1.7e+07u l=150000u
X193 a_n897_n18062# a_n945_n11000# a_n989_n18062# w_n1127_n18281# sky130_fd_pr__pfet_01v8 ad=0p pd=0u as=0p ps=0u w=1.7e+07u l=150000u
X194 a_n897_n18062# a_n945_n11000# a_n989_n18062# w_n1127_n18281# sky130_fd_pr__pfet_01v8 ad=0p pd=0u as=0p ps=0u w=1.7e+07u l=150000u
X195 a_n989_n18062# a_n945_n11000# a_n897_n18062# w_n1127_n18281# sky130_fd_pr__pfet_01v8 ad=0p pd=0u as=0p ps=0u w=1.7e+07u l=150000u
X196 a_n897_n18062# a_n945_n11000# a_n989_n18062# w_n1127_n18281# sky130_fd_pr__pfet_01v8 ad=0p pd=0u as=0p ps=0u w=1.7e+07u l=150000u
X197 a_n897_n18062# a_n945_n11000# a_n989_n18062# w_n1127_n18281# sky130_fd_pr__pfet_01v8 ad=0p pd=0u as=0p ps=0u w=1.7e+07u l=150000u
X198 a_n989_n18062# a_n945_n11000# a_n897_n18062# w_n1127_n18281# sky130_fd_pr__pfet_01v8 ad=0p pd=0u as=0p ps=0u w=1.7e+07u l=150000u
X199 a_n897_n18062# a_n945_n11000# a_n989_n18062# w_n1127_n18281# sky130_fd_pr__pfet_01v8 ad=0p pd=0u as=0p ps=0u w=1.7e+07u l=150000u
.ends

.subckt sky130_fd_pr__pfet_01v8_BKDUYV a_n177_n718# a_n29_47# a_119_n718# a_119_47#
+ a_n119_n780# a_n29_n718# a_n177_47# w_n213_n780#
X0 a_119_n718# a_n119_n780# a_n29_n718# w_n213_n780# sky130_fd_pr__pfet_01v8 ad=8.7e+11p pd=6.58e+06u as=8.7e+11p ps=6.58e+06u w=3e+06u l=450000u
X1 a_n29_47# a_n119_n780# a_n177_47# w_n213_n780# sky130_fd_pr__pfet_01v8 ad=8.7e+11p pd=6.58e+06u as=8.7e+11p ps=6.58e+06u w=3e+06u l=450000u
X2 a_n29_n718# a_n119_n780# a_n177_n718# w_n213_n780# sky130_fd_pr__pfet_01v8 ad=0p pd=0u as=8.7e+11p ps=6.58e+06u w=3e+06u l=450000u
X3 a_119_47# a_n119_n780# a_n29_47# w_n213_n780# sky130_fd_pr__pfet_01v8 ad=8.7e+11p pd=6.58e+06u as=0p ps=0u w=3e+06u l=450000u
.ends

.subckt sky130_fd_pr__nfet_01v8_RFHF3H a_45_n144# a_n45_n170# a_n103_n144# VSUBS
X0 a_45_n144# a_n45_n170# a_n103_n144# VSUBS sky130_fd_pr__nfet_01v8 ad=3.277e+11p pd=2.84e+06u as=3.277e+11p ps=2.84e+06u w=1.13e+06u l=450000u
.ends

.subckt pseudolayout Vin Vdd Vs11 Vs5 Voutinverted Voutfinal Vout3 Vout1 Vs14 Vout2
+ Vs4 XM9/VSUBS m1_356_74# sky130_fd_pr__pfet_01v8_BKDUYV_0/w_n213_n780# m1_2998_3710#
+ m1_800_822# XM9/w_n213_n780# XM7/w_n213_n780#
XXM12 Vs11 Vdd Vs11 Vs11 Voutinverted Vdd Vs11 XM9/w_n213_n780# sky130_fd_pr__pfet_01v8_BKDUYV
XXM14 Vs14 Vout2 Voutfinal XM9/VSUBS sky130_fd_pr__nfet_01v8_RFHF3H
XXM13 Vs4 Vout1 Vout3 XM9/VSUBS sky130_fd_pr__nfet_01v8_RFHF3H
XXM15 Vs14 Vout3 Voutinverted XM9/VSUBS sky130_fd_pr__nfet_01v8_RFHF3H
XXM16 m1_356_74# Vout3 Vs4 XM9/VSUBS sky130_fd_pr__nfet_01v8_RFHF3H
XXM17 m1_356_74# Voutfinal Vs14 XM9/VSUBS sky130_fd_pr__nfet_01v8_RFHF3H
Xsky130_fd_pr__pfet_01v8_BKDUYV_0 Vdd Vout1 Vdd Vdd Vin Vout1 Vdd sky130_fd_pr__pfet_01v8_BKDUYV_0/w_n213_n780#
+ sky130_fd_pr__pfet_01v8_BKDUYV
XXM3 Vs5 Vout2 Vs5 Vs5 Vin Vout2 Vs5 XM7/w_n213_n780# sky130_fd_pr__pfet_01v8_BKDUYV
XXM4 Vs4 Vin Vout2 XM9/VSUBS sky130_fd_pr__nfet_01v8_RFHF3H