* NGSPICE file created from user_analog_project_wrapper_wo_PA.ext - technology: sky130A

.subckt sky130_fd_pr__pfet_01v8_JJT9EJ a_n29_n350# a_89_n350# a_n89_n376# a_29_n376#
+ w_n183_n412# a_n147_n350#
X0 a_89_n350# a_29_n376# a_n29_n350# w_n183_n412# sky130_fd_pr__pfet_01v8 ad=1.015e+12p pd=7.58e+06u as=1.015e+12p ps=7.58e+06u w=3.5e+06u l=300000u
X1 a_n29_n350# a_n89_n376# a_n147_n350# w_n183_n412# sky130_fd_pr__pfet_01v8 ad=0p pd=0u as=1.015e+12p ps=7.58e+06u w=3.5e+06u l=300000u
.ends

.subckt sky130_fd_pr__pfet_01v8_EKD6RN a_n147_n300# a_n29_n300# a_89_n300# a_n89_n326#
+ w_n183_n362# a_29_n326#
X0 a_89_n300# a_29_n326# a_n29_n300# w_n183_n362# sky130_fd_pr__pfet_01v8 ad=8.7e+11p pd=6.58e+06u as=8.7e+11p ps=6.58e+06u w=3e+06u l=300000u
X1 a_n29_n300# a_n89_n326# a_n147_n300# w_n183_n362# sky130_fd_pr__pfet_01v8 ad=0p pd=0u as=8.7e+11p ps=6.58e+06u w=3e+06u l=300000u
.ends

.subckt sky130_fd_pr__pfet_01v8_GRHA7T w_n124_n302# a_30_n240# a_n30_n266# a_n88_n240#
X0 a_30_n240# a_n30_n266# a_n88_n240# w_n124_n302# sky130_fd_pr__pfet_01v8 ad=6.96e+11p pd=5.38e+06u as=6.96e+11p ps=5.38e+06u w=2.4e+06u l=300000u
.ends

.subckt sky130_fd_pr__nfet_01v8_ZU5QBV a_n88_n350# a_30_n350# a_n30_n376# VSUBS
X0 a_30_n350# a_n30_n376# a_n88_n350# VSUBS sky130_fd_pr__nfet_01v8 ad=1.015e+12p pd=7.58e+06u as=1.015e+12p ps=7.58e+06u w=3.5e+06u l=300000u
.ends

.subckt sky130_fd_pr__nfet_01v8_M8KAMF a_30_n300# a_n30_n326# a_n88_n300# VSUBS
X0 a_30_n300# a_n30_n326# a_n88_n300# VSUBS sky130_fd_pr__nfet_01v8 ad=8.7e+11p pd=6.58e+06u as=8.7e+11p ps=6.58e+06u w=3e+06u l=300000u
.ends

.subckt sky130_fd_pr__nfet_01v8_N56T4C a_30_n300# a_n30_n326# a_n88_n300# VSUBS
X0 a_30_n300# a_n30_n326# a_n88_n300# VSUBS sky130_fd_pr__nfet_01v8 ad=8.7e+11p pd=6.58e+06u as=8.7e+11p ps=6.58e+06u w=3e+06u l=300000u
.ends

.subckt sky130_fd_pr__nfet_01v8_7R257D a_30_n180# a_n88_n180# a_n30_n206# VSUBS
X0 a_30_n180# a_n30_n206# a_n88_n180# VSUBS sky130_fd_pr__nfet_01v8 ad=5.22e+11p pd=4.18e+06u as=5.22e+11p ps=4.18e+06u w=1.8e+06u l=300000u
.ends

.subckt VCO Out In gnd VDD
Xsky130_fd_pr__pfet_01v8_JJT9EJ_0 VDD a_2222_736# a_330_688# a_330_688# VDD a_2222_736#
+ sky130_fd_pr__pfet_01v8_JJT9EJ
Xsky130_fd_pr__pfet_01v8_JJT9EJ_1 VDD Out a_2222_736# a_2222_736# VDD Out sky130_fd_pr__pfet_01v8_JJT9EJ
Xsky130_fd_pr__pfet_01v8_EKD6RN_1 m1_50_n32# VDD m1_50_n32# a_94_4# VDD a_94_4# sky130_fd_pr__pfet_01v8_EKD6RN
Xsky130_fd_pr__pfet_01v8_EKD6RN_0 m1_50_n32# m1_404_74# m1_50_n32# a_330_688# VDD
+ a_330_688# sky130_fd_pr__pfet_01v8_EKD6RN
Xsky130_fd_pr__pfet_01v8_GRHA7T_0 VDD a_94_4# a_94_4# VDD sky130_fd_pr__pfet_01v8_GRHA7T
Xsky130_fd_pr__nfet_01v8_ZU5QBV_0 gnd a_2222_736# a_330_688# gnd sky130_fd_pr__nfet_01v8_ZU5QBV
Xsky130_fd_pr__nfet_01v8_ZU5QBV_1 gnd Out a_2222_736# gnd sky130_fd_pr__nfet_01v8_ZU5QBV
Xsky130_fd_pr__nfet_01v8_M8KAMF_0 sky130_fd_pr__nfet_01v8_M8KAMF_0/a_30_n300# In gnd
+ gnd sky130_fd_pr__nfet_01v8_M8KAMF
Xsky130_fd_pr__nfet_01v8_N56T4C_0 m1_404_74# a_330_688# sky130_fd_pr__nfet_01v8_M8KAMF_0/a_30_n300#
+ gnd sky130_fd_pr__nfet_01v8_N56T4C
Xsky130_fd_pr__nfet_01v8_7R257D_0 a_94_4# gnd In gnd sky130_fd_pr__nfet_01v8_7R257D
X0 VDD a_94_4# a_620_58# VDD sky130_fd_pr__pfet_01v8 ad=5.336e+12p pd=4.028e+07u as=2.61e+12p ps=1.974e+07u w=3e+06u l=300000u
X1 a_330_688# a_972_n1002# a_1446_n1002# gnd sky130_fd_pr__nfet_01v8 ad=8.7e+11p pd=6.58e+06u as=8.7e+11p ps=6.58e+06u w=3e+06u l=300000u
X2 a_972_n1002# m1_404_74# a_854_n1002# gnd sky130_fd_pr__nfet_01v8 ad=8.7e+11p pd=6.58e+06u as=8.7e+11p ps=6.58e+06u w=3e+06u l=300000u
X3 a_620_58# a_94_4# VDD VDD sky130_fd_pr__pfet_01v8 ad=0p pd=0u as=0p ps=0u w=3e+06u l=300000u
X4 a_972_n1002# m1_404_74# a_620_58# VDD sky130_fd_pr__pfet_01v8 ad=8.7e+11p pd=6.58e+06u as=0p ps=0u w=3e+06u l=300000u
X5 a_1212_58# a_94_4# VDD VDD sky130_fd_pr__pfet_01v8 ad=2.61e+12p pd=1.974e+07u as=0p ps=0u w=3e+06u l=300000u
X6 a_620_58# m1_404_74# a_972_n1002# VDD sky130_fd_pr__pfet_01v8 ad=0p pd=0u as=0p ps=0u w=3e+06u l=300000u
X7 a_330_688# a_972_n1002# a_1212_58# VDD sky130_fd_pr__pfet_01v8 ad=8.7e+11p pd=6.58e+06u as=0p ps=0u w=3e+06u l=300000u
X8 a_1212_58# a_972_n1002# a_330_688# VDD sky130_fd_pr__pfet_01v8 ad=0p pd=0u as=0p ps=0u w=3e+06u l=300000u
X9 VDD a_94_4# a_1212_58# VDD sky130_fd_pr__pfet_01v8 ad=0p pd=0u as=0p ps=0u w=3e+06u l=300000u
X10 a_1446_n1002# In gnd gnd sky130_fd_pr__nfet_01v8 ad=0p pd=0u as=5.162e+12p ps=3.908e+07u w=3e+06u l=300000u
X11 a_854_n1002# In gnd gnd sky130_fd_pr__nfet_01v8 ad=0p pd=0u as=0p ps=0u w=3e+06u l=300000u
.ends

.subckt sky130_fd_pr__pfet_01v8_DLEZW3 a_30_n996# a_n88_n996# a_n33_955# w_n124_n1058#
X0 a_30_n996# a_n33_955# a_n88_n996# w_n124_n1058# sky130_fd_pr__pfet_01v8 ad=2.784e+12p pd=1.978e+07u as=2.784e+12p ps=1.978e+07u w=9.6e+06u l=300000u
.ends

.subckt sky130_fd_pr__pfet_01v8_BGAJ3C a_30_n996# a_n88_n996# a_n33_955# w_n124_n1058#
X0 a_30_n996# a_n33_955# a_n88_n996# w_n124_n1058# sky130_fd_pr__pfet_01v8 ad=2.784e+12p pd=1.978e+07u as=2.784e+12p ps=1.978e+07u w=9.6e+06u l=300000u
.ends

.subckt sky130_fd_pr__cap_mim_m3_1_2TJQJA c1_n256_n206# m3_n356_n306#
X0 c1_n256_n206# m3_n356_n306# sky130_fd_pr__cap_mim_m3_1 l=2.06e+06u w=2.06e+06u
.ends

.subckt sky130_fd_pr__pfet_01v8_3AH94A a_30_n924# a_n33_n1021# a_n88_n924# w_n124_n1024#
X0 a_30_n924# a_n33_n1021# a_n88_n924# w_n124_n1024# sky130_fd_pr__pfet_01v8 ad=2.784e+12p pd=1.978e+07u as=2.784e+12p ps=1.978e+07u w=9.6e+06u l=300000u
.ends

.subckt sky130_fd_pr__nfet_01v8_QSQEJU a_60_n331# a_n60_n357# a_n118_n331# VSUBS
X0 a_60_n331# a_n60_n357# a_n118_n331# VSUBS sky130_fd_pr__nfet_01v8 ad=8.7e+11p pd=6.58e+06u as=8.7e+11p ps=6.58e+06u w=3e+06u l=600000u
.ends

.subckt sky130_fd_pr__pfet_01v8_ZF98YR a_90_n444# w_n184_n544# a_n148_n444# a_n90_n541#
X0 a_90_n444# a_n90_n541# a_n148_n444# w_n184_n544# sky130_fd_pr__pfet_01v8 ad=1.392e+12p pd=1.018e+07u as=1.392e+12p ps=1.018e+07u w=4.8e+06u l=900000u
.ends

.subckt sky130_fd_pr__nfet_01v8_4LH4MW a_n147_n300# a_n29_n300# a_89_n300# a_n89_n326#
+ VSUBS
X0 a_89_n300# a_n89_n326# a_n29_n300# VSUBS sky130_fd_pr__nfet_01v8 ad=8.7e+11p pd=6.58e+06u as=8.7e+11p ps=6.58e+06u w=3e+06u l=300000u
X1 a_n29_n300# a_n89_n326# a_n147_n300# VSUBS sky130_fd_pr__nfet_01v8 ad=0p pd=0u as=8.7e+11p ps=6.58e+06u w=3e+06u l=300000u
.ends

.subckt sky130_fd_pr__pfet_01v8_XLJZXD w_n124_n1084# a_30_n984# a_n33_n1081# a_n88_n984#
X0 a_30_n984# a_n33_n1081# a_n88_n984# w_n124_n1084# sky130_fd_pr__pfet_01v8 ad=2.958e+12p pd=2.098e+07u as=2.958e+12p ps=2.098e+07u w=1.02e+07u l=300000u
.ends

.subckt sky130_fd_pr__cap_mim_m3_1_UJT6R3 m3_n850_n800# c1_n750_n700#
X0 c1_n750_n700# m3_n850_n800# sky130_fd_pr__cap_mim_m3_1 l=7e+06u w=7e+06u
.ends

.subckt sky130_fd_pr__nfet_01v8_VXZ4X9 a_n88_n631# a_30_n631# a_n33_591# VSUBS
X0 a_30_n631# a_n33_591# a_n88_n631# VSUBS sky130_fd_pr__nfet_01v8 ad=1.74e+12p pd=1.258e+07u as=1.74e+12p ps=1.258e+07u w=6e+06u l=300000u
.ends

.subckt sky130_fd_pr__nfet_01v8_ZG8UN4 a_n147_n269# a_n29_n269# a_89_n269# a_n92_n357#
+ VSUBS
X0 a_n29_n269# a_n92_n357# a_n147_n269# VSUBS sky130_fd_pr__nfet_01v8 ad=8.7e+11p pd=6.58e+06u as=8.7e+11p ps=6.58e+06u w=3e+06u l=300000u
X1 a_89_n269# a_n92_n357# a_n29_n269# VSUBS sky130_fd_pr__nfet_01v8 ad=8.7e+11p pd=6.58e+06u as=0p ps=0u w=3e+06u l=300000u
.ends

.subckt sky130_fd_pr__pfet_01v8_BGN7SB a_n147_n996# a_n89_n1054# w_n183_n1058# a_n29_n996#
+ a_89_n996#
X0 a_n29_n996# a_n89_n1054# a_n147_n996# w_n183_n1058# sky130_fd_pr__pfet_01v8 ad=2.784e+12p pd=1.978e+07u as=2.784e+12p ps=1.978e+07u w=9.6e+06u l=300000u
X1 a_89_n996# a_n89_n1054# a_n29_n996# w_n183_n1058# sky130_fd_pr__pfet_01v8 ad=2.784e+12p pd=1.978e+07u as=0p ps=0u w=9.6e+06u l=300000u
.ends

.subckt sky130_fd_pr__nfet_01v8_VXZEP9 a_n88_n331# a_30_n331# a_n33_291# VSUBS
X0 a_30_n331# a_n33_291# a_n88_n331# VSUBS sky130_fd_pr__nfet_01v8 ad=8.7e+11p pd=6.58e+06u as=8.7e+11p ps=6.58e+06u w=3e+06u l=300000u
.ends

.subckt sky130_fd_pr__nfet_01v8_DDE7UB a_60_n331# a_n60_n357# a_n118_n331# VSUBS
X0 a_60_n331# a_n60_n357# a_n118_n331# VSUBS sky130_fd_pr__nfet_01v8 ad=8.7e+11p pd=6.58e+06u as=8.7e+11p ps=6.58e+06u w=3e+06u l=600000u
.ends

.subckt sky130_fd_pr__nfet_01v8_QSSMMX a_n88_n331# a_30_n331# a_n33_291# VSUBS
X0 a_30_n331# a_n33_291# a_n88_n331# VSUBS sky130_fd_pr__nfet_01v8 ad=8.7e+11p pd=6.58e+06u as=8.7e+11p ps=6.58e+06u w=3e+06u l=300000u
.ends

.subckt sky130_fd_pr__res_xhigh_po_0p35_3KQD4B a_n35_n764# a_n35_332# VSUBS
X0 a_n35_n764# a_n35_332# VSUBS sky130_fd_pr__res_xhigh_po_0p35 l=3.32e+06u
.ends

.subckt res20_046K gnd sky130_fd_pr__res_xhigh_po_0p35_3KQD4B_0/a_n35_332# sky130_fd_pr__res_xhigh_po_0p35_3KQD4B_0/a_n35_n764#
Xsky130_fd_pr__res_xhigh_po_0p35_3KQD4B_0 sky130_fd_pr__res_xhigh_po_0p35_3KQD4B_0/a_n35_n764#
+ sky130_fd_pr__res_xhigh_po_0p35_3KQD4B_0/a_n35_332# gnd sky130_fd_pr__res_xhigh_po_0p35_3KQD4B
.ends

.subckt sky130_fd_pr__nfet_01v8_PWLUNE a_30_n269# a_n88_n269# a_n33_n357# VSUBS
X0 a_30_n269# a_n33_n357# a_n88_n269# VSUBS sky130_fd_pr__nfet_01v8 ad=8.7e+11p pd=6.58e+06u as=8.7e+11p ps=6.58e+06u w=3e+06u l=300000u
.ends

.subckt sky130_fd_pr__nfet_01v8_PW4FSF a_30_n300# a_n88_n300# a_n33_n388# VSUBS
X0 a_30_n300# a_n33_n388# a_n88_n300# VSUBS sky130_fd_pr__nfet_01v8 ad=8.7e+11p pd=6.58e+06u as=8.7e+11p ps=6.58e+06u w=3e+06u l=300000u
.ends

.subckt sky130_fd_pr__pfet_01v8_JBAJ3C a_30_n960# a_n30_n986# a_n88_n960# w_n124_n1022#
X0 a_30_n960# a_n30_n986# a_n88_n960# w_n124_n1022# sky130_fd_pr__pfet_01v8 ad=2.784e+12p pd=1.978e+07u as=2.784e+12p ps=1.978e+07u w=9.6e+06u l=300000u
.ends

.subckt sky130_fd_pr__pfet_01v8_FHN7S9 a_n92_n1021# a_n147_n924# a_n29_n924# w_n183_n1024#
+ a_89_n924#
X0 a_n29_n924# a_n92_n1021# a_n147_n924# w_n183_n1024# sky130_fd_pr__pfet_01v8 ad=2.784e+12p pd=1.978e+07u as=2.784e+12p ps=1.978e+07u w=9.6e+06u l=300000u
X1 a_89_n924# a_n92_n1021# a_n29_n924# w_n183_n1024# sky130_fd_pr__pfet_01v8 ad=2.784e+12p pd=1.978e+07u as=0p ps=0u w=9.6e+06u l=300000u
.ends

.subckt filter_op_amp VDD GND Vcm Vbiasn Vbp Vin Vip Vop Von Vabn Vabp
Xsky130_fd_pr__pfet_01v8_DLEZW3_0 m1_n2237_n550# m1_n2519_n1631# m1_n5638_1530# VDD
+ sky130_fd_pr__pfet_01v8_DLEZW3
Xsky130_fd_pr__pfet_01v8_BGAJ3C_0 m1_n2272_n1512# m1_n2237_n550# Vcm VDD sky130_fd_pr__pfet_01v8_BGAJ3C
Xsky130_fd_pr__cap_mim_m3_1_2TJQJA_0 m1_n5638_1530# Von sky130_fd_pr__cap_mim_m3_1_2TJQJA
Xsky130_fd_pr__pfet_01v8_3AH94A_0 VDD Vbp m1_n2237_n550# VDD sky130_fd_pr__pfet_01v8_3AH94A
Xsky130_fd_pr__cap_mim_m3_1_2TJQJA_1 m1_n5638_1530# Vop sky130_fd_pr__cap_mim_m3_1_2TJQJA
Xsky130_fd_pr__nfet_01v8_QSQEJU_0 m1_n1679_n1856# Vbiasn GND GND sky130_fd_pr__nfet_01v8_QSQEJU
Xsky130_fd_pr__pfet_01v8_ZF98YR_0 VDD VDD a_n653_n548# a_n653_n548# sky130_fd_pr__pfet_01v8_ZF98YR
Xsky130_fd_pr__nfet_01v8_4LH4MW_0 li_n1171_n1928# GND li_n1171_n1928# a_n1358_n1863#
+ GND sky130_fd_pr__nfet_01v8_4LH4MW
Xsky130_fd_pr__pfet_01v8_XLJZXD_0 VDD a_n1358_n1863# Vabp VDD sky130_fd_pr__pfet_01v8_XLJZXD
Xsky130_fd_pr__cap_mim_m3_1_UJT6R3_1 Von li_934_n870# sky130_fd_pr__cap_mim_m3_1_UJT6R3
Xsky130_fd_pr__cap_mim_m3_1_UJT6R3_0 m1_n469_n1782# Vop sky130_fd_pr__cap_mim_m3_1_UJT6R3
Xsky130_fd_pr__nfet_01v8_VXZ4X9_0 Von sky130_fd_pr__nfet_01v8_VXZ4X9_0/a_30_n631#
+ VDD GND sky130_fd_pr__nfet_01v8_VXZ4X9
Xsky130_fd_pr__nfet_01v8_VXZ4X9_1 sky130_fd_pr__nfet_01v8_VXZ4X9_0/a_30_n631# GND
+ m1_723_n1016# GND sky130_fd_pr__nfet_01v8_VXZ4X9
Xsky130_fd_pr__nfet_01v8_ZG8UN4_0 li_n1171_n1928# Vop li_n1171_n1928# VDD GND sky130_fd_pr__nfet_01v8_ZG8UN4
Xsky130_fd_pr__pfet_01v8_BGN7SB_0 Vop Vabn VDD VDD Vop sky130_fd_pr__pfet_01v8_BGN7SB
Xsky130_fd_pr__nfet_01v8_VXZEP9_0 GND m1_n2272_n1512# m1_n2519_n1631# GND sky130_fd_pr__nfet_01v8_VXZEP9
Xsky130_fd_pr__nfet_01v8_VXZEP9_1 sky130_fd_pr__nfet_01v8_VXZEP9_3/a_30_n331# a_n535_1506#
+ a_n535_1506# GND sky130_fd_pr__nfet_01v8_VXZEP9
Xsky130_fd_pr__nfet_01v8_VXZEP9_2 m1_n469_n1782# sky130_fd_pr__nfet_01v8_VXZEP9_2/a_30_n331#
+ Vip GND sky130_fd_pr__nfet_01v8_VXZEP9
Xsky130_fd_pr__nfet_01v8_VXZEP9_3 m1_n1679_n1856# sky130_fd_pr__nfet_01v8_VXZEP9_3/a_30_n331#
+ Vcm GND sky130_fd_pr__nfet_01v8_VXZEP9
Xsky130_fd_pr__nfet_01v8_DDE7UB_0 m1_n1679_n1856# m1_n2272_n1512# GND GND sky130_fd_pr__nfet_01v8_DDE7UB
Xsky130_fd_pr__nfet_01v8_VXZEP9_4 m1_723_n1016# GND m1_723_n1016# GND sky130_fd_pr__nfet_01v8_VXZEP9
Xsky130_fd_pr__nfet_01v8_QSSMMX_0 m1_n2519_n1631# GND m1_n2519_n1631# GND sky130_fd_pr__nfet_01v8_QSSMMX
Xsky130_fd_pr__nfet_01v8_VXZEP9_5 sky130_fd_pr__nfet_01v8_VXZEP9_2/a_30_n331# GND
+ Vbiasn GND sky130_fd_pr__nfet_01v8_VXZEP9
Xres20_046K_0 GND m1_n5638_1530# Von res20_046K
Xsky130_fd_pr__nfet_01v8_PWLUNE_0 a_n1358_n1863# GND a_n1358_n1863# GND sky130_fd_pr__nfet_01v8_PWLUNE
Xres20_046K_1 GND m1_n5638_1530# Vop res20_046K
Xsky130_fd_pr__nfet_01v8_PWLUNE_1 m1_n469_n1782# Vabn a_n535_1506# GND sky130_fd_pr__nfet_01v8_PWLUNE
Xsky130_fd_pr__nfet_01v8_PWLUNE_3 sky130_fd_pr__nfet_01v8_PWLUNE_3/a_30_n269# li_934_n870#
+ Vin GND sky130_fd_pr__nfet_01v8_PWLUNE
Xsky130_fd_pr__nfet_01v8_PWLUNE_2 li_934_n870# Vabp a_n535_1506# GND sky130_fd_pr__nfet_01v8_PWLUNE
Xsky130_fd_pr__nfet_01v8_PW4FSF_0 sky130_fd_pr__nfet_01v8_PW4FSF_0/a_30_n300# a_n653_n548#
+ Vcm GND sky130_fd_pr__nfet_01v8_PW4FSF
Xsky130_fd_pr__pfet_01v8_JBAJ3C_0 sky130_fd_pr__pfet_01v8_JBAJ3C_0/a_30_n960# a_n653_n548#
+ Vabn VDD sky130_fd_pr__pfet_01v8_JBAJ3C
Xsky130_fd_pr__nfet_01v8_PW4FSF_1 GND sky130_fd_pr__nfet_01v8_PW4FSF_0/a_30_n300#
+ Vbiasn GND sky130_fd_pr__nfet_01v8_PW4FSF
Xsky130_fd_pr__pfet_01v8_JBAJ3C_1 VDD a_n535_1506# sky130_fd_pr__pfet_01v8_JBAJ3C_0/a_30_n960#
+ VDD sky130_fd_pr__pfet_01v8_JBAJ3C
Xsky130_fd_pr__nfet_01v8_PW4FSF_2 GND sky130_fd_pr__nfet_01v8_PWLUNE_3/a_30_n269#
+ Vbiasn GND sky130_fd_pr__nfet_01v8_PW4FSF
Xsky130_fd_pr__pfet_01v8_JBAJ3C_2 sky130_fd_pr__pfet_01v8_JBAJ3C_2/a_30_n960# a_n535_1506#
+ VDD VDD sky130_fd_pr__pfet_01v8_JBAJ3C
Xsky130_fd_pr__pfet_01v8_JBAJ3C_3 a_n535_1506# a_n653_n548# sky130_fd_pr__pfet_01v8_JBAJ3C_2/a_30_n960#
+ VDD sky130_fd_pr__pfet_01v8_JBAJ3C
Xsky130_fd_pr__pfet_01v8_JBAJ3C_4 sky130_fd_pr__pfet_01v8_JBAJ3C_4/a_30_n960# a_n653_n548#
+ Vabp VDD sky130_fd_pr__pfet_01v8_JBAJ3C
Xsky130_fd_pr__pfet_01v8_JBAJ3C_5 VDD a_n535_1506# sky130_fd_pr__pfet_01v8_JBAJ3C_4/a_30_n960#
+ VDD sky130_fd_pr__pfet_01v8_JBAJ3C
Xsky130_fd_pr__pfet_01v8_JBAJ3C_6 m1_723_n1016# Vabn VDD VDD sky130_fd_pr__pfet_01v8_JBAJ3C
Xsky130_fd_pr__pfet_01v8_FHN7S9_0 Vabp Von VDD VDD Von sky130_fd_pr__pfet_01v8_FHN7S9
.ends

.subckt sky130_fd_pr__nfet_01v8_TAQE79 a_n257_n2480# a_n204_n2568# a_n143_n2480# a_n29_n2480#
+ a_85_n2480# a_199_n2480# VSUBS
X0 a_199_n2480# a_n204_n2568# a_85_n2480# VSUBS sky130_fd_pr__nfet_01v8 ad=7.192e+12p pd=5.018e+07u as=7.192e+12p ps=5.018e+07u w=2.48e+07u l=280000u
X1 a_n29_n2480# a_n204_n2568# a_n143_n2480# VSUBS sky130_fd_pr__nfet_01v8 ad=7.192e+12p pd=5.018e+07u as=7.192e+12p ps=5.018e+07u w=2.48e+07u l=280000u
X2 a_85_n2480# a_n204_n2568# a_n29_n2480# VSUBS sky130_fd_pr__nfet_01v8 ad=0p pd=0u as=0p ps=0u w=2.48e+07u l=280000u
X3 a_n143_n2480# a_n204_n2568# a_n257_n2480# VSUBS sky130_fd_pr__nfet_01v8 ad=0p pd=0u as=7.192e+12p ps=5.018e+07u w=2.48e+07u l=280000u
.ends

.subckt sky130_fd_pr__res_xhigh_po_0p35_957LLN a_n35_510# a_n35_n942# VSUBS
X0 a_n35_n942# a_n35_510# VSUBS sky130_fd_pr__res_xhigh_po_0p35 l=5.1e+06u
.ends

.subckt sky130_fd_pr__res_xhigh_po_0p35_8U82AX a_n35_n502# a_n35_70# VSUBS
X0 a_n35_n502# a_n35_70# VSUBS sky130_fd_pr__res_xhigh_po_0p35 l=700000u
.ends

.subckt sky130_fd_pr__nfet_01v8_PAV6Y8 a_n34_n746# a_30_n667# a_n88_n667# VSUBS
X0 a_30_n667# a_n34_n746# a_n88_n667# VSUBS sky130_fd_pr__nfet_01v8 ad=1.9343e+12p pd=1.392e+07u as=1.9343e+12p ps=1.392e+07u w=6.67e+06u l=300000u
.ends

.subckt sky130_fd_pr__cap_mim_m3_1_HYGCGT m3_631_n1550# c1_731_n1450# c1_n1611_n1450#
+ m3_n540_n1570# c1_n440_n1470# m3_n1711_n1550#
X0 c1_731_n1450# m3_631_n1550# sky130_fd_pr__cap_mim_m3_1 l=3.9e+06u w=3.9e+06u
X1 c1_n440_n1470# m3_n540_n1570# sky130_fd_pr__cap_mim_m3_1 l=3.9e+06u w=3.9e+06u
X2 c1_n440_n1470# m3_n540_n1570# sky130_fd_pr__cap_mim_m3_1 l=3.9e+06u w=3.9e+06u
X3 c1_n440_n1470# m3_n540_n1570# sky130_fd_pr__cap_mim_m3_1 l=3.9e+06u w=3.9e+06u
X4 c1_n1611_n1450# m3_n1711_n1550# sky130_fd_pr__cap_mim_m3_1 l=3.9e+06u w=3.9e+06u
X5 c1_n1611_n1450# m3_n1711_n1550# sky130_fd_pr__cap_mim_m3_1 l=3.9e+06u w=3.9e+06u
X6 c1_731_n1450# m3_631_n1550# sky130_fd_pr__cap_mim_m3_1 l=3.9e+06u w=3.9e+06u
X7 c1_n1611_n1450# m3_n1711_n1550# sky130_fd_pr__cap_mim_m3_1 l=3.9e+06u w=3.9e+06u
X8 c1_731_n1450# m3_631_n1550# sky130_fd_pr__cap_mim_m3_1 l=3.9e+06u w=3.9e+06u
.ends

.subckt sky130_fd_pr__cap_mim_m3_1_FLZ2GZ m3_n1729_n3390# c1_210_n3290# m3_n3568_n3390#
+ c1_2049_n3290# m3_1949_n3390# c1_n1629_n3290# m3_110_n3390# c1_n3468_n3290#
X0 c1_n3468_n3290# m3_n3568_n3390# sky130_fd_pr__cap_mim_m3_1 l=7.1e+06u w=7.1e+06u
X1 c1_210_n3290# m3_110_n3390# sky130_fd_pr__cap_mim_m3_1 l=7.1e+06u w=7.1e+06u
X2 c1_210_n3290# m3_110_n3390# sky130_fd_pr__cap_mim_m3_1 l=7.1e+06u w=7.1e+06u
X3 c1_n1629_n3290# m3_n1729_n3390# sky130_fd_pr__cap_mim_m3_1 l=7.1e+06u w=7.1e+06u
X4 c1_n3468_n3290# m3_n3568_n3390# sky130_fd_pr__cap_mim_m3_1 l=7.1e+06u w=7.1e+06u
X5 c1_2049_n3290# m3_1949_n3390# sky130_fd_pr__cap_mim_m3_1 l=7.1e+06u w=7.1e+06u
X6 c1_n1629_n3290# m3_n1729_n3390# sky130_fd_pr__cap_mim_m3_1 l=7.1e+06u w=7.1e+06u
X7 c1_2049_n3290# m3_1949_n3390# sky130_fd_pr__cap_mim_m3_1 l=7.1e+06u w=7.1e+06u
X8 c1_210_n3290# m3_110_n3390# sky130_fd_pr__cap_mim_m3_1 l=7.1e+06u w=7.1e+06u
X9 c1_n3468_n3290# m3_n3568_n3390# sky130_fd_pr__cap_mim_m3_1 l=7.1e+06u w=7.1e+06u
X10 c1_210_n3290# m3_110_n3390# sky130_fd_pr__cap_mim_m3_1 l=7.1e+06u w=7.1e+06u
X11 c1_n3468_n3290# m3_n3568_n3390# sky130_fd_pr__cap_mim_m3_1 l=7.1e+06u w=7.1e+06u
X12 c1_n1629_n3290# m3_n1729_n3390# sky130_fd_pr__cap_mim_m3_1 l=7.1e+06u w=7.1e+06u
X13 c1_2049_n3290# m3_1949_n3390# sky130_fd_pr__cap_mim_m3_1 l=7.1e+06u w=7.1e+06u
X14 c1_2049_n3290# m3_1949_n3390# sky130_fd_pr__cap_mim_m3_1 l=7.1e+06u w=7.1e+06u
X15 c1_n1629_n3290# m3_n1729_n3390# sky130_fd_pr__cap_mim_m3_1 l=7.1e+06u w=7.1e+06u
.ends

.subckt sky130_fd_pr__cap_mim_m3_1_LJH8TW c1_649_n1260# m3_n430_n1360# c1_n370_n1260#
+ c1_n1389_n1260# m3_n1489_n1360# m3_549_n1360#
X0 c1_n1389_n1260# m3_n1489_n1360# sky130_fd_pr__cap_mim_m3_1 l=3.2e+06u w=3.2e+06u
X1 c1_649_n1260# m3_549_n1360# sky130_fd_pr__cap_mim_m3_1 l=3.2e+06u w=3.2e+06u
X2 c1_n1389_n1260# m3_n1489_n1360# sky130_fd_pr__cap_mim_m3_1 l=3.2e+06u w=3.2e+06u
X3 c1_n370_n1260# m3_n430_n1360# sky130_fd_pr__cap_mim_m3_1 l=3.2e+06u w=3.2e+06u
X4 c1_649_n1260# m3_549_n1360# sky130_fd_pr__cap_mim_m3_1 l=3.2e+06u w=3.2e+06u
X5 c1_n370_n1260# m3_n430_n1360# sky130_fd_pr__cap_mim_m3_1 l=3.2e+06u w=3.2e+06u
X6 c1_n370_n1260# m3_n430_n1360# sky130_fd_pr__cap_mim_m3_1 l=3.2e+06u w=3.2e+06u
X7 c1_n1389_n1260# m3_n1489_n1360# sky130_fd_pr__cap_mim_m3_1 l=3.2e+06u w=3.2e+06u
X8 c1_649_n1260# m3_549_n1360# sky130_fd_pr__cap_mim_m3_1 l=3.2e+06u w=3.2e+06u
.ends

.subckt lna_bk5 RFOUT RFIN GND VDD
Xsky130_fd_pr__nfet_01v8_TAQE79_0 GND m1_n4018_4876# m1_n4058_n108# GND m1_n4058_n108#
+ GND GND sky130_fd_pr__nfet_01v8_TAQE79
Xsky130_fd_pr__res_xhigh_po_0p35_957LLN_0 m1_11831_n869# m1_n4018_4876# GND sky130_fd_pr__res_xhigh_po_0p35_957LLN
Xsky130_fd_pr__res_xhigh_po_0p35_8U82AX_0 m1_11831_n869# VDD GND sky130_fd_pr__res_xhigh_po_0p35_8U82AX
XXM2 m1_n4058_n108# VDD VDD m1_n4058_n108# VDD m1_n4058_n108# GND sky130_fd_pr__nfet_01v8_TAQE79
XXM3 m1_11831_n869# m1_11831_n869# GND GND sky130_fd_pr__nfet_01v8_PAV6Y8
XXC1 VDD VDD VDD VDD VDD VDD sky130_fd_pr__cap_mim_m3_1_HYGCGT
XXC3 m1_n4018_4876# RFIN m1_n4018_4876# RFIN m1_n4018_4876# RFIN m1_n4018_4876# RFIN
+ sky130_fd_pr__cap_mim_m3_1_FLZ2GZ
XXC4 RFOUT VDD VDD RFOUT VDD RFOUT sky130_fd_pr__cap_mim_m3_1_HYGCGT
Xsky130_fd_pr__cap_mim_m3_1_LJH8TW_1 m1_n4018_4876# GND m1_n4018_4876# m1_n4018_4876#
+ GND GND sky130_fd_pr__cap_mim_m3_1_LJH8TW
.ends

.subckt sky130_fd_pr__nfet_01v8_QAUSEG a_50_n1031# a_n50_n1057# a_n108_n1031# VSUBS
X0 a_50_n1031# a_n50_n1057# a_n108_n1031# VSUBS sky130_fd_pr__nfet_01v8 ad=2.9e+12p pd=2.058e+07u as=2.9e+12p ps=2.058e+07u w=1e+07u l=500000u
.ends

.subckt diffPair a_n616_n624# a_n714_n624# a_n1088_556# a_n812_n624# w_n1098_n740#
+ a_n1088_n730#
X0 a_n714_n624# a_n1088_n730# a_n812_n624# w_n1098_n740# sky130_fd_pr__pfet_01v8 ad=1.45e+13p pd=1.0464e+08u as=9.0625e+12p ps=6.54e+07u w=6.25e+06u l=200000u
X1 a_n714_n624# a_n1088_n730# a_n812_n624# w_n1098_n740# sky130_fd_pr__pfet_01v8 ad=0p pd=0u as=0p ps=0u w=6.25e+06u l=200000u
X2 a_n714_n624# a_n1088_n730# a_n812_n624# w_n1098_n740# sky130_fd_pr__pfet_01v8 ad=0p pd=0u as=0p ps=0u w=6.25e+06u l=200000u
X3 a_n616_n624# a_n1088_556# a_n714_n624# w_n1098_n740# sky130_fd_pr__pfet_01v8 ad=7.25e+12p pd=5.232e+07u as=0p ps=0u w=6.25e+06u l=200000u
X4 a_n812_n624# a_n1088_n730# a_n714_n624# w_n1098_n740# sky130_fd_pr__pfet_01v8 ad=0p pd=0u as=0p ps=0u w=6.25e+06u l=200000u
X5 a_n812_n624# a_n1088_n730# a_n714_n624# w_n1098_n740# sky130_fd_pr__pfet_01v8 ad=0p pd=0u as=0p ps=0u w=6.25e+06u l=200000u
X6 a_n616_n624# a_n1088_556# a_n714_n624# w_n1098_n740# sky130_fd_pr__pfet_01v8 ad=0p pd=0u as=0p ps=0u w=6.25e+06u l=200000u
X7 a_n714_n624# a_n1088_556# a_n616_n624# w_n1098_n740# sky130_fd_pr__pfet_01v8 ad=0p pd=0u as=0p ps=0u w=6.25e+06u l=200000u
X8 a_n714_n624# a_n1088_556# a_n616_n624# w_n1098_n740# sky130_fd_pr__pfet_01v8 ad=0p pd=0u as=0p ps=0u w=6.25e+06u l=200000u
X9 a_n714_n624# a_n1088_556# a_n616_n624# w_n1098_n740# sky130_fd_pr__pfet_01v8 ad=0p pd=0u as=0p ps=0u w=6.25e+06u l=200000u
X10 a_n812_n624# a_n1088_n730# a_n714_n624# w_n1098_n740# sky130_fd_pr__pfet_01v8 ad=0p pd=0u as=0p ps=0u w=6.25e+06u l=200000u
X11 a_n714_n624# a_n1088_556# a_n616_n624# w_n1098_n740# sky130_fd_pr__pfet_01v8 ad=0p pd=0u as=0p ps=0u w=6.25e+06u l=200000u
X12 a_n812_n624# a_n1088_n730# a_n714_n624# w_n1098_n740# sky130_fd_pr__pfet_01v8 ad=0p pd=0u as=0p ps=0u w=6.25e+06u l=200000u
X13 a_n616_n624# a_n1088_556# a_n714_n624# w_n1098_n740# sky130_fd_pr__pfet_01v8 ad=0p pd=0u as=0p ps=0u w=6.25e+06u l=200000u
X14 a_n714_n624# a_n1088_n730# a_n812_n624# w_n1098_n740# sky130_fd_pr__pfet_01v8 ad=0p pd=0u as=0p ps=0u w=6.25e+06u l=200000u
X15 a_n616_n624# a_n1088_556# a_n714_n624# w_n1098_n740# sky130_fd_pr__pfet_01v8 ad=0p pd=0u as=0p ps=0u w=6.25e+06u l=200000u
.ends

.subckt sky130_fd_pr__pfet_01v8_NDY9L5 sky130_fd_pr__pfet_01v8_27VBYH_0/a_n714_n624#
+ sky130_fd_pr__pfet_01v8_27VBYH_0/a_n1088_556# sky130_fd_pr__pfet_01v8_27VBYH_0/a_n812_n624#
+ sky130_fd_pr__pfet_01v8_27VBYH_0/w_n1098_n740# sky130_fd_pr__pfet_01v8_27VBYH_0/a_n616_n624#
+ sky130_fd_pr__pfet_01v8_27VBYH_0/a_n1088_n730#
Xsky130_fd_pr__pfet_01v8_27VBYH_0 sky130_fd_pr__pfet_01v8_27VBYH_0/a_n616_n624# sky130_fd_pr__pfet_01v8_27VBYH_0/a_n714_n624#
+ sky130_fd_pr__pfet_01v8_27VBYH_0/a_n1088_556# sky130_fd_pr__pfet_01v8_27VBYH_0/a_n812_n624#
+ sky130_fd_pr__pfet_01v8_27VBYH_0/w_n1098_n740# sky130_fd_pr__pfet_01v8_27VBYH_0/a_n1088_n730#
+ diffPair
.ends

.subckt sky130_fd_pr__nfet_01v8_JSTS37 a_29_n1057# a_n129_n1057# a_129_n1031# a_n29_n1031#
+ a_n187_n1031# VSUBS
X0 a_n29_n1031# a_n129_n1057# a_n187_n1031# VSUBS sky130_fd_pr__nfet_01v8 ad=2.9e+12p pd=2.058e+07u as=2.9e+12p ps=2.058e+07u w=1e+07u l=500000u
X1 a_129_n1031# a_29_n1057# a_n29_n1031# VSUBS sky130_fd_pr__nfet_01v8 ad=2.9e+12p pd=2.058e+07u as=0p ps=0u w=1e+07u l=500000u
.ends

.subckt sky130_fd_pr__pfet_01v8_G3EKZ5 a_50_n964# a_n108_n964# a_n50_n1061# w_n144_n1064#
X0 a_50_n964# a_n50_n1061# a_n108_n964# w_n144_n1064# sky130_fd_pr__pfet_01v8 ad=2.9e+12p pd=2.058e+07u as=2.9e+12p ps=2.058e+07u w=1e+07u l=500000u
.ends

.subckt sky130_fd_pr__pfet_01v8_GCY946 w_n852_n1112# a_n816_n1000# a_n658_n1000# a_n758_n1108#
X0 a_n816_n1000# a_n758_n1108# a_n658_n1000# w_n852_n1112# sky130_fd_pr__pfet_01v8 ad=1.74e+13p pd=1.2348e+08u as=1.45e+13p ps=1.029e+08u w=1e+07u l=500000u
X1 a_n658_n1000# a_n758_n1108# a_n816_n1000# w_n852_n1112# sky130_fd_pr__pfet_01v8 ad=0p pd=0u as=0p ps=0u w=1e+07u l=500000u
X2 a_n816_n1000# a_n758_n1108# a_n658_n1000# w_n852_n1112# sky130_fd_pr__pfet_01v8 ad=0p pd=0u as=0p ps=0u w=1e+07u l=500000u
X3 a_n816_n1000# a_n758_n1108# a_n658_n1000# w_n852_n1112# sky130_fd_pr__pfet_01v8 ad=0p pd=0u as=0p ps=0u w=1e+07u l=500000u
X4 a_n658_n1000# a_n758_n1108# a_n816_n1000# w_n852_n1112# sky130_fd_pr__pfet_01v8 ad=0p pd=0u as=0p ps=0u w=1e+07u l=500000u
X5 a_n658_n1000# a_n758_n1108# a_n816_n1000# w_n852_n1112# sky130_fd_pr__pfet_01v8 ad=0p pd=0u as=0p ps=0u w=1e+07u l=500000u
X6 a_n816_n1000# a_n758_n1108# a_n658_n1000# w_n852_n1112# sky130_fd_pr__pfet_01v8 ad=0p pd=0u as=0p ps=0u w=1e+07u l=500000u
X7 a_n816_n1000# a_n758_n1108# a_n658_n1000# w_n852_n1112# sky130_fd_pr__pfet_01v8 ad=0p pd=0u as=0p ps=0u w=1e+07u l=500000u
X8 a_n658_n1000# a_n758_n1108# a_n816_n1000# w_n852_n1112# sky130_fd_pr__pfet_01v8 ad=0p pd=0u as=0p ps=0u w=1e+07u l=500000u
X9 a_n658_n1000# a_n758_n1108# a_n816_n1000# w_n852_n1112# sky130_fd_pr__pfet_01v8 ad=0p pd=0u as=0p ps=0u w=1e+07u l=500000u
.ends

.subckt sky130_fd_pr__nfet_01v8_U894CR a_n818_n968# a_n660_n968# a_n760_n1056# VSUBS
X0 a_n818_n968# a_n760_n1056# a_n660_n968# VSUBS sky130_fd_pr__nfet_01v8 ad=1.74e+13p pd=1.2348e+08u as=1.45e+13p ps=1.029e+08u w=1e+07u l=500000u
X1 a_n818_n968# a_n760_n1056# a_n660_n968# VSUBS sky130_fd_pr__nfet_01v8 ad=0p pd=0u as=0p ps=0u w=1e+07u l=500000u
X2 a_n660_n968# a_n760_n1056# a_n818_n968# VSUBS sky130_fd_pr__nfet_01v8 ad=0p pd=0u as=0p ps=0u w=1e+07u l=500000u
X3 a_n818_n968# a_n760_n1056# a_n660_n968# VSUBS sky130_fd_pr__nfet_01v8 ad=0p pd=0u as=0p ps=0u w=1e+07u l=500000u
X4 a_n660_n968# a_n760_n1056# a_n818_n968# VSUBS sky130_fd_pr__nfet_01v8 ad=0p pd=0u as=0p ps=0u w=1e+07u l=500000u
X5 a_n818_n968# a_n760_n1056# a_n660_n968# VSUBS sky130_fd_pr__nfet_01v8 ad=0p pd=0u as=0p ps=0u w=1e+07u l=500000u
X6 a_n818_n968# a_n760_n1056# a_n660_n968# VSUBS sky130_fd_pr__nfet_01v8 ad=0p pd=0u as=0p ps=0u w=1e+07u l=500000u
X7 a_n660_n968# a_n760_n1056# a_n818_n968# VSUBS sky130_fd_pr__nfet_01v8 ad=0p pd=0u as=0p ps=0u w=1e+07u l=500000u
X8 a_n660_n968# a_n760_n1056# a_n818_n968# VSUBS sky130_fd_pr__nfet_01v8 ad=0p pd=0u as=0p ps=0u w=1e+07u l=500000u
X9 a_n660_n968# a_n760_n1056# a_n818_n968# VSUBS sky130_fd_pr__nfet_01v8 ad=0p pd=0u as=0p ps=0u w=1e+07u l=500000u
.ends

.subckt sky130_fd_pr__pfet_01v8_MV88VP a_1029_n236# a_29_n262# a_n1029_n262# a_n29_n236#
+ a_n1087_n236# w_n1123_n298#
X0 a_1029_n236# a_29_n262# a_n29_n236# w_n1123_n298# sky130_fd_pr__pfet_01v8 ad=5.8e+11p pd=4.58e+06u as=5.8e+11p ps=4.58e+06u w=2e+06u l=5e+06u
X1 a_n29_n236# a_n1029_n262# a_n1087_n236# w_n1123_n298# sky130_fd_pr__pfet_01v8 ad=0p pd=0u as=5.8e+11p ps=4.58e+06u w=2e+06u l=5e+06u
.ends

.subckt sky130_fd_pr__cap_mim_m3_1_A5GGR2 c1_n1149_n1099# m3_n1249_n1199#
X0 c1_n1149_n1099# m3_n1249_n1199# sky130_fd_pr__cap_mim_m3_1 l=1.099e+07u w=1.099e+07u
.ends

.subckt sky130_fd_pr__nfet_01v8_N3YEAS a_200_n131# a_n200_n157# a_n258_n131# VSUBS
X0 a_200_n131# a_n200_n157# a_n258_n131# VSUBS sky130_fd_pr__nfet_01v8 ad=2.9e+11p pd=2.58e+06u as=2.9e+11p ps=2.58e+06u w=1e+06u l=2e+06u
.ends

.subckt biasAmp AGND VDD VBias Vout pVin nVin
Xsky130_fd_pr__nfet_01v8_QAUSEG_0 AGND m1_n6472_6310# m1_n6630_6484# AGND sky130_fd_pr__nfet_01v8_QAUSEG
Xsky130_fd_pr__pfet_01v8_NDY9L5_0 m1_n6582_8098# nVin m1_n6630_6484# VDD m1_n6472_6310#
+ pVin sky130_fd_pr__pfet_01v8_NDY9L5
XXM4 m1_n6472_6310# m1_n6472_6310# a_n5834_8724# AGND m1_n6472_6310# AGND sky130_fd_pr__nfet_01v8_JSTS37
XXM6 VDD a_n5834_8724# a_n5834_8724# VDD sky130_fd_pr__pfet_01v8_G3EKZ5
XXM7 VDD VDD Vout a_n5834_8724# sky130_fd_pr__pfet_01v8_GCY946
XXM8 Vout AGND m1_n6630_6484# AGND sky130_fd_pr__nfet_01v8_U894CR
XXM9 m1_n6582_8098# m1_n8508_8312# m1_n8508_8312# VDD m1_n8508_8312# VDD sky130_fd_pr__pfet_01v8_MV88VP
Xsky130_fd_pr__cap_mim_m3_1_A5GGR2_0 Vout m1_n6630_6484# sky130_fd_pr__cap_mim_m3_1_A5GGR2
XXM10 m1_n8508_8312# VBias AGND AGND sky130_fd_pr__nfet_01v8_N3YEAS
.ends

.subckt sky130_fd_pr__nfet_01v8_FKEGQS a_n101_n1832# a_n29_n1806# a_n159_n1806# a_126_n1806#
+ VSUBS
X0 a_n29_n1806# a_n101_n1832# a_n159_n1806# VSUBS sky130_fd_pr__nfet_01v8 ad=7.4949e+12p pd=3.695e+07u as=5.2374e+12p ps=3.67e+07u w=1.806e+07u l=360000u
X1 a_126_n1806# a_n101_n1832# a_n29_n1806# VSUBS sky130_fd_pr__nfet_01v8 ad=5.2374e+12p pd=3.67e+07u as=0p ps=0u w=1.806e+07u l=360000u
.ends

.subckt sky130_fd_pr__res_high_po_0p35_FJ8ACL a_n35_60# a_n35_n492# VSUBS
X0 a_n35_n492# a_n35_60# VSUBS sky130_fd_pr__res_high_po_0p35 l=600000u
.ends

.subckt sky130_fd_pr__cap_mim_m3_1_NXL3SG c1_n2790_n2740# m3_n2890_n2840#
X0 c1_n2790_n2740# m3_n2890_n2840# sky130_fd_pr__cap_mim_m3_1 l=2.74e+07u w=2.74e+07u
.ends

.subckt sky130_fd_pr__nfet_01v8_S6EGL7 a_101_n1806# a_231_n1806# a_n29_n1806# a_n209_n1806#
+ a_n339_n1806# a_n281_n1893# VSUBS
X0 a_n209_n1806# a_n281_n1893# a_n339_n1806# VSUBS sky130_fd_pr__nfet_01v8 ad=9.7524e+12p pd=3.72e+07u as=5.2374e+12p ps=3.67e+07u w=1.806e+07u l=360000u
X1 a_n29_n1806# a_n281_n1893# a_n209_n1806# VSUBS sky130_fd_pr__nfet_01v8 ad=5.2374e+12p pd=3.67e+07u as=0p ps=0u w=1.806e+07u l=360000u
X2 a_231_n1806# a_n281_n1893# a_101_n1806# VSUBS sky130_fd_pr__nfet_01v8 ad=5.2374e+12p pd=3.67e+07u as=5.2374e+12p ps=3.67e+07u w=1.806e+07u l=360000u
X3 a_101_n1806# a_n281_n1893# a_n29_n1806# VSUBS sky130_fd_pr__nfet_01v8 ad=0p pd=0u as=0p ps=0u w=1.806e+07u l=360000u
.ends

.subckt mixer_layout LO_P LO_N RF IF_P IF_N VDD GND
Xsky130_fd_pr__nfet_01v8_FKEGQS_1 LO_N IF_N mid mid GND sky130_fd_pr__nfet_01v8_FKEGQS
Xsky130_fd_pr__nfet_01v8_FKEGQS_2 LO_P IF_P mid mid GND sky130_fd_pr__nfet_01v8_FKEGQS
Xsky130_fd_pr__res_high_po_0p35_FJ8ACL_0 VDD IF_P GND sky130_fd_pr__res_high_po_0p35_FJ8ACL
Xsky130_fd_pr__res_high_po_0p35_FJ8ACL_1 VDD IF_N GND sky130_fd_pr__res_high_po_0p35_FJ8ACL
XXC1 IF_N GND sky130_fd_pr__cap_mim_m3_1_NXL3SG
XXC2 IF_P GND sky130_fd_pr__cap_mim_m3_1_NXL3SG
Xsky130_fd_pr__nfet_01v8_S6EGL7_0 mid GND GND mid GND RF GND sky130_fd_pr__nfet_01v8_S6EGL7
.ends

.subckt sky130_fd_pr__rf_pnp_05v5_W3p40L3p40 Emitter Collector Base m=1