.subckt user_analog_project_wrapper vssa1 vccd1 io_in[26] io_in[25] io_in[24] io_in[23]
+ io_in[22] io_in[21] io_in[20] io_in[19] io_in[18] io_in[17] io_in[16] io_in[15] io_in[14] io_in[13] io_in[12]
+ io_in[11] io_in[10] io_in[9] io_in[8] io_in[7] io_in[6] io_in[5] io_in[4] io_in[3] io_in[2] io_in[1] io_in[0]
+ gpio_analog[17] gpio_analog[16] gpio_analog[15] gpio_analog[14] gpio_analog[13] gpio_analog[12] gpio_analog[11]
+ gpio_analog[10] gpio_analog[9] gpio_analog[8] gpio_analog[7] gpio_analog[6] gpio_analog[5] gpio_analog[4]
+ gpio_analog[3] gpio_analog[2] gpio_analog[1] gpio_analog[0] io_analog[10] io_analog[9] io_analog[8] io_analog[7]
+ io_analog[6] io_analog[5] io_analog[4] io_analog[3] io_analog[2] io_analog[1] io_analog[0] vssa2 vccd2 vssd1
+ vssd2 wb_clk_i wb_rst_i wbs_stb_i wbs_cyc_i wbs_we_i wbs_sel_i[3] wbs_sel_i[2] wbs_sel_i[1] wbs_sel_i[0]
+ wbs_dat_i[31] wbs_dat_i[30] wbs_dat_i[29] wbs_dat_i[28] wbs_dat_i[27] wbs_dat_i[26] wbs_dat_i[25] wbs_dat_i[24]
+ wbs_dat_i[23] wbs_dat_i[22] wbs_dat_i[21] wbs_dat_i[20] wbs_dat_i[19] wbs_dat_i[18] wbs_dat_i[17] wbs_dat_i[16]
+ wbs_dat_i[15] wbs_dat_i[14] wbs_dat_i[13] wbs_dat_i[12] wbs_dat_i[11] wbs_dat_i[10] wbs_dat_i[9] wbs_dat_i[8]
+ wbs_dat_i[7] wbs_dat_i[6] wbs_dat_i[5] wbs_dat_i[4] wbs_dat_i[3] wbs_dat_i[2] wbs_dat_i[1] wbs_dat_i[0]
+ wbs_adr_i[31] wbs_adr_i[30] wbs_adr_i[29] wbs_adr_i[28] wbs_adr_i[27] wbs_adr_i[26] wbs_adr_i[25] wbs_adr_i[24]
+ wbs_adr_i[23] wbs_adr_i[22] wbs_adr_i[21] wbs_adr_i[20] wbs_adr_i[19] wbs_adr_i[18] wbs_adr_i[17] wbs_adr_i[16]
+ wbs_adr_i[15] wbs_adr_i[14] wbs_adr_i[13] wbs_adr_i[12] wbs_adr_i[11] wbs_adr_i[10] wbs_adr_i[9] wbs_adr_i[8]
+ wbs_adr_i[7] wbs_adr_i[6] wbs_adr_i[5] wbs_adr_i[4] wbs_adr_i[3] wbs_adr_i[2] wbs_adr_i[1] wbs_adr_i[0]
+ wbs_ack_o wbs_dat_o[31] wbs_dat_o[30] wbs_dat_o[29] wbs_dat_o[28] wbs_dat_o[27] wbs_dat_o[26] wbs_dat_o[25]
+ wbs_dat_o[24] wbs_dat_o[23] wbs_dat_o[22] wbs_dat_o[21] wbs_dat_o[20] wbs_dat_o[19] wbs_dat_o[18] wbs_dat_o[17]
+ wbs_dat_o[16] wbs_dat_o[15] wbs_dat_o[14] wbs_dat_o[13] wbs_dat_o[12] wbs_dat_o[11] wbs_dat_o[10] wbs_dat_o[9]
+ wbs_dat_o[8] wbs_dat_o[7] wbs_dat_o[6] wbs_dat_o[5] wbs_dat_o[4] wbs_dat_o[3] wbs_dat_o[2] wbs_dat_o[1]
+ wbs_dat_o[0] la_data_in[127] la_data_in[126] la_data_in[125] la_data_in[124] la_data_in[123] la_data_in[122]
+ la_data_in[121] la_data_in[120] la_data_in[119] la_data_in[118] la_data_in[117] la_data_in[116] la_data_in[115]
+ la_data_in[114] la_data_in[113] la_data_in[112] la_data_in[111] la_data_in[110] la_data_in[109] la_data_in[108]
+ la_data_in[107] la_data_in[106] la_data_in[105] la_data_in[104] la_data_in[103] la_data_in[102] la_data_in[101]
+ la_data_in[100] la_data_in[99] la_data_in[98] la_data_in[97] la_data_in[96] la_data_in[95] la_data_in[94]
+ la_data_in[93] la_data_in[92] la_data_in[91] la_data_in[90] la_data_in[89] la_data_in[88] la_data_in[87]
+ la_data_in[86] la_data_in[85] la_data_in[84] la_data_in[83] la_data_in[82] la_data_in[81] la_data_in[80]
+ la_data_in[79] la_data_in[78] la_data_in[77] la_data_in[76] la_data_in[75] la_data_in[74] la_data_in[73]
+ la_data_in[72] la_data_in[71] la_data_in[70] la_data_in[69] la_data_in[68] la_data_in[67] la_data_in[66]
+ la_data_in[65] la_data_in[64] la_data_in[63] la_data_in[62] la_data_in[61] la_data_in[60] la_data_in[59]
+ la_data_in[58] la_data_in[57] la_data_in[56] la_data_in[55] la_data_in[54] la_data_in[53] la_data_in[52]
+ la_data_in[51] la_data_in[50] la_data_in[49] la_data_in[48] la_data_in[47] la_data_in[46] la_data_in[45]
+ la_data_in[44] la_data_in[43] la_data_in[42] la_data_in[41] la_data_in[40] la_data_in[39] la_data_in[38]
+ la_data_in[37] la_data_in[36] la_data_in[35] la_data_in[34] la_data_in[33] la_data_in[32] la_data_in[31]
+ la_data_in[30] la_data_in[29] la_data_in[28] la_data_in[27] la_data_in[26] la_data_in[25] la_data_in[24]
+ la_data_in[23] la_data_in[22] la_data_in[21] la_data_in[20] la_data_in[19] la_data_in[18] la_data_in[17]
+ la_data_in[16] la_data_in[15] la_data_in[14] la_data_in[13] la_data_in[12] la_data_in[11] la_data_in[10]
+ la_data_in[9] la_data_in[8] la_data_in[7] la_data_in[6] la_data_in[5] la_data_in[4] la_data_in[3] la_data_in[2]
+ la_data_in[1] la_data_in[0] la_data_out[127] la_data_out[126] la_data_out[125] la_data_out[124] la_data_out[123]
+ la_data_out[122] la_data_out[121] la_data_out[120] la_data_out[119] la_data_out[118] la_data_out[117]
+ la_data_out[116] la_data_out[115] la_data_out[114] la_data_out[113] la_data_out[112] la_data_out[111]
+ la_data_out[110] la_data_out[109] la_data_out[108] la_data_out[107] la_data_out[106] la_data_out[105]
+ la_data_out[104] la_data_out[103] la_data_out[102] la_data_out[101] la_data_out[100] la_data_out[99] la_data_out[98]
+ la_data_out[97] la_data_out[96] la_data_out[95] la_data_out[94] la_data_out[93] la_data_out[92] la_data_out[91]
+ la_data_out[90] la_data_out[89] la_data_out[88] la_data_out[87] la_data_out[86] la_data_out[85] la_data_out[84]
+ la_data_out[83] la_data_out[82] la_data_out[81] la_data_out[80] la_data_out[79] la_data_out[78] la_data_out[77]
+ la_data_out[76] la_data_out[75] la_data_out[74] la_data_out[73] la_data_out[72] la_data_out[71] la_data_out[70]
+ la_data_out[69] la_data_out[68] la_data_out[67] la_data_out[66] la_data_out[65] la_data_out[64] la_data_out[63]
+ la_data_out[62] la_data_out[61] la_data_out[60] la_data_out[59] la_data_out[58] la_data_out[57] la_data_out[56]
+ la_data_out[55] la_data_out[54] la_data_out[53] la_data_out[52] la_data_out[51] la_data_out[50] la_data_out[49]
+ la_data_out[48] la_data_out[47] la_data_out[46] la_data_out[45] la_data_out[44] la_data_out[43] la_data_out[42]
+ la_data_out[41] la_data_out[40] la_data_out[39] la_data_out[38] la_data_out[37] la_data_out[36] la_data_out[35]
+ la_data_out[34] la_data_out[33] la_data_out[32] la_data_out[31] la_data_out[30] la_data_out[29] la_data_out[28]
+ la_data_out[27] la_data_out[26] la_data_out[25] la_data_out[24] la_data_out[23] la_data_out[22] la_data_out[21]
+ la_data_out[20] la_data_out[19] la_data_out[18] la_data_out[17] la_data_out[16] la_data_out[15] la_data_out[14]
+ la_data_out[13] la_data_out[12] la_data_out[11] la_data_out[10] la_data_out[9] la_data_out[8] la_data_out[7]
+ la_data_out[6] la_data_out[5] la_data_out[4] la_data_out[3] la_data_out[2] la_data_out[1] la_data_out[0]
+ io_in_3v3[26] io_in_3v3[25] io_in_3v3[24] io_in_3v3[23] io_in_3v3[22] io_in_3v3[21] io_in_3v3[20] io_in_3v3[19]
+ io_in_3v3[18] io_in_3v3[17] io_in_3v3[16] io_in_3v3[15] io_in_3v3[14] io_in_3v3[13] io_in_3v3[12] io_in_3v3[11]
+ io_in_3v3[10] io_in_3v3[9] io_in_3v3[8] io_in_3v3[7] io_in_3v3[6] io_in_3v3[5] io_in_3v3[4] io_in_3v3[3]
+ io_in_3v3[2] io_in_3v3[1] io_in_3v3[0] user_clock2 io_oeb[26] io_oeb[25] io_oeb[24] io_oeb[23] io_oeb[22]
+ io_oeb[21] io_oeb[20] io_oeb[19] io_oeb[18] io_oeb[17] io_oeb[16] io_oeb[15] io_oeb[14] io_oeb[13] io_oeb[12]
+ io_oeb[11] io_oeb[10] io_oeb[9] io_oeb[8] io_oeb[7] io_oeb[6] io_oeb[5] io_oeb[4] io_oeb[3] io_oeb[2]
+ io_oeb[1] io_oeb[0] gpio_noesd[17] gpio_noesd[16] gpio_noesd[15] gpio_noesd[14] gpio_noesd[13] gpio_noesd[12]
+ gpio_noesd[11] gpio_noesd[10] gpio_noesd[9] gpio_noesd[8] gpio_noesd[7] gpio_noesd[6] gpio_noesd[5] gpio_noesd[4]
+ gpio_noesd[3] gpio_noesd[2] gpio_noesd[1] gpio_noesd[0] io_clamp_low[2] io_clamp_low[1] io_clamp_low[0]
+ user_irq[2] user_irq[1] user_irq[0] la_oenb[127] la_oenb[126] la_oenb[125] la_oenb[124] la_oenb[123]
+ la_oenb[122] la_oenb[121] la_oenb[120] la_oenb[119] la_oenb[118] la_oenb[117] la_oenb[116] la_oenb[115]
+ la_oenb[114] la_oenb[113] la_oenb[112] la_oenb[111] la_oenb[110] la_oenb[109] la_oenb[108] la_oenb[107]
+ la_oenb[106] la_oenb[105] la_oenb[104] la_oenb[103] la_oenb[102] la_oenb[101] la_oenb[100] la_oenb[99]
+ la_oenb[98] la_oenb[97] la_oenb[96] la_oenb[95] la_oenb[94] la_oenb[93] la_oenb[92] la_oenb[91] la_oenb[90]
+ la_oenb[89] la_oenb[88] la_oenb[87] la_oenb[86] la_oenb[85] la_oenb[84] la_oenb[83] la_oenb[82] la_oenb[81]
+ la_oenb[80] la_oenb[79] la_oenb[78] la_oenb[77] la_oenb[76] la_oenb[75] la_oenb[74] la_oenb[73] la_oenb[72]
+ la_oenb[71] la_oenb[70] la_oenb[69] la_oenb[68] la_oenb[67] la_oenb[66] la_oenb[65] la_oenb[64] la_oenb[63]
+ la_oenb[62] la_oenb[61] la_oenb[60] la_oenb[59] la_oenb[58] la_oenb[57] la_oenb[56] la_oenb[55] la_oenb[54]
+ la_oenb[53] la_oenb[52] la_oenb[51] la_oenb[50] la_oenb[49] la_oenb[48] la_oenb[47] la_oenb[46] la_oenb[45]
+ la_oenb[44] la_oenb[43] la_oenb[42] la_oenb[41] la_oenb[40] la_oenb[39] la_oenb[38] la_oenb[37] la_oenb[36]
+ la_oenb[35] la_oenb[34] la_oenb[33] la_oenb[32] la_oenb[31] la_oenb[30] la_oenb[29] la_oenb[28] la_oenb[27]
+ la_oenb[26] la_oenb[25] la_oenb[24] la_oenb[23] la_oenb[22] la_oenb[21] la_oenb[20] la_oenb[19] la_oenb[18]
+ la_oenb[17] la_oenb[16] la_oenb[15] la_oenb[14] la_oenb[13] la_oenb[12] la_oenb[11] la_oenb[10] la_oenb[9]
+ la_oenb[8] la_oenb[7] la_oenb[6] la_oenb[5] la_oenb[4] la_oenb[3] la_oenb[2] la_oenb[1] la_oenb[0] io_out[26]
+ io_out[25] io_out[24] io_out[23] io_out[22] io_out[21] io_out[20] io_out[19] io_out[18] io_out[17] io_out[16]
+ io_out[15] io_out[14] io_out[13] io_out[12] io_out[11] io_out[10] io_out[9] io_out[8] io_out[7] io_out[6]
+ io_out[5] io_out[4] io_out[3] io_out[2] io_out[1] io_out[0] vdda2 vdda1 io_clamp_high[2] io_clamp_high[1]
+ io_clamp_high[0]
*.PININFO vssa1:B vccd1:B io_in[26:0]:I gpio_analog[17:0]:B io_analog[10:0]:B vssa2:B vccd2:B
*+ vssd1:B vssd2:B wb_clk_i:I wb_rst_i:I wbs_stb_i:I wbs_cyc_i:I wbs_we_i:I wbs_sel_i[3:0]:I wbs_dat_i[31:0]:I
*+ wbs_adr_i[31:0]:I wbs_ack_o:O wbs_dat_o[31:0]:O la_data_in[127:0]:I la_data_out[127:0]:O io_in_3v3[26:0]:I
*+ user_clock2:I io_oeb[26:0]:O gpio_noesd[17:0]:B io_clamp_low[2:0]:B user_irq[2:0]:O la_oenb[127:0]:I
*+ io_out[26:0]:O vdda2:B vdda1:B io_clamp_high[2:0]:B
x1 vssa2 gpio_analog[8] gpio_analog[11] gpio_analog[10] gpio_analog[9] vdda2 BGR_schematic
X1 gpio_analog[7] io_analog[8] vccd2 vssa2 io_analog[7] io_analog[10] biasAmp_simpClean
x3 vccd2 io_analog[3] io_analog[5] vssa2 VCO
x4 vccd2 gpio_analog[16] gpio_analog[17] gpio_analog[15] gpio_analog[14] gpio_analog[13] vssa2
+ mixer_schematic
x5 vccd2 gpio_analog[13] io_analog[2] vssa2 LNA
x7 vccd1 io_out[0] io_out[1] io_out[6] io_out[5] io_in[4] io_in[3] gpio_analog[9] gpio_analog[8]
+ io_in[2] vssa2 FilterOpAmp
x2 vccd2 gpio_analog[10] gpio_analog[10] io_analog[5] gpio_analog[11] io_analog[9] io_analog[6]
+ gpio_analog[11] vssa2 TIA
.ends

* expanding   symbol:  /research/mlab/chipathon/Final_schematic/BGR_schematic.sym # of pins=6
* sym_path: /research/mlab/chipathon/Final_schematic/BGR_schematic.sym
* sch_path: /research/mlab/chipathon/Final_schematic/BGR_schematic.sch
.subckt BGR_schematic  GND Vout Vref1 Vref2 Vref3 VDD
*.PININFO VDD:I GND:O Vout:O Vref1:O Vref2:O Vref3:O
XM1 DM2 DM2 GND GND sky130_fd_pr__nfet_01v8 L=10 W=1 nf=1 ad='int((nf+1)/2) * W/nf * 0.29' as='int((nf+2)/2) * W/nf * 0.29'
+ pd='2*int((nf+1)/2) * (W/nf + 0.29)' ps='2*int((nf+2)/2) * (W/nf + 0.29)' nrd='0.29 / W' nrs='0.29 / W'
+ sa=0 sb=0 sd=0 mult=1 m=1 
XM2 DM2 G11 VDD VDD sky130_fd_pr__pfet_01v8 L=2 W=20 nf=1 ad='int((nf+1)/2) * W/nf * 0.29' as='int((nf+2)/2) * W/nf * 0.29'
+ pd='2*int((nf+1)/2) * (W/nf + 0.29)' ps='2*int((nf+2)/2) * (W/nf + 0.29)' nrd='0.29 / W' nrs='0.29 / W'
+ sa=0 sb=0 sd=0 mult=1 m=1 
XM8 G11 G9 SM9 GND sky130_fd_pr__nfet_01v8 L=10 W=1 nf=1 ad='int((nf+1)/2) * W/nf * 0.29' as='int((nf+2)/2) * W/nf * 0.29'
+ pd='2*int((nf+1)/2) * (W/nf + 0.29)' ps='2*int((nf+2)/2) * (W/nf + 0.29)' nrd='0.29 / W' nrs='0.29 / W'
+ sa=0 sb=0 sd=0 mult=1 m=1 
XM9 SM6 SM7 SM9 GND sky130_fd_pr__nfet_01v8 L=10 W=1 nf=1 ad='int((nf+1)/2) * W/nf * 0.29' as='int((nf+2)/2) * W/nf * 0.29'
+ pd='2*int((nf+1)/2) * (W/nf + 0.29)' ps='2*int((nf+2)/2) * (W/nf + 0.29)' nrd='0.29 / W' nrs='0.29 / W'
+ sa=0 sb=0 sd=0 mult=1 m=1 
XM10 SM9 SM6 GND GND sky130_fd_pr__nfet_01v8 L=10 W=1 nf=1 ad='int((nf+1)/2) * W/nf * 0.29' as='int((nf+2)/2) * W/nf * 0.29'
+ pd='2*int((nf+1)/2) * (W/nf + 0.29)' ps='2*int((nf+2)/2) * (W/nf + 0.29)' nrd='0.29 / W' nrs='0.29 / W'
+ sa=0 sb=0 sd=0 mult=1 m=1 
XM13 Vref1 G11 VDD VDD sky130_fd_pr__pfet_01v8 L=2 W=25 nf=1 ad='int((nf+1)/2) * W/nf * 0.29' as='int((nf+2)/2) * W/nf * 0.29'
+ pd='2*int((nf+1)/2) * (W/nf + 0.29)' ps='2*int((nf+2)/2) * (W/nf + 0.29)' nrd='0.29 / W' nrs='0.29 / W'
+ sa=0 sb=0 sd=0 mult=1 m=1 
XM15 Vref3 G11 VDD VDD sky130_fd_pr__pfet_01v8 L=2 W=25 nf=1 ad='int((nf+1)/2) * W/nf * 0.29' as='int((nf+2)/2) * W/nf * 0.29'
+ pd='2*int((nf+1)/2) * (W/nf + 0.29)' ps='2*int((nf+2)/2) * (W/nf + 0.29)' nrd='0.29 / W' nrs='0.29 / W'
+ sa=0 sb=0 sd=0 mult=1 m=1 
XM16 Vref2 G11 VDD VDD sky130_fd_pr__pfet_01v8 L=2 W=25 nf=1 ad='int((nf+1)/2) * W/nf * 0.29' as='int((nf+2)/2) * W/nf * 0.29'
+ pd='2*int((nf+1)/2) * (W/nf + 0.29)' ps='2*int((nf+2)/2) * (W/nf + 0.29)' nrd='0.29 / W' nrs='0.29 / W'
+ sa=0 sb=0 sd=0 mult=1 m=1 
XM11 Vout G11 VDD VDD sky130_fd_pr__pfet_01v8 L=2 W=24.5 nf=1 ad='int((nf+1)/2) * W/nf * 0.29' as='int((nf+2)/2) * W/nf * 0.29'
+ pd='2*int((nf+1)/2) * (W/nf + 0.29)' ps='2*int((nf+2)/2) * (W/nf + 0.29)' nrd='0.29 / W' nrs='0.29 / W'
+ sa=0 sb=0 sd=0 mult=1 m=1 
XM3 G9 DM2 G11 VDD sky130_fd_pr__pfet_01v8 L=2 W=20 nf=1 ad='int((nf+1)/2) * W/nf * 0.29' as='int((nf+2)/2) * W/nf * 0.29'
+ pd='2*int((nf+1)/2) * (W/nf + 0.29)' ps='2*int((nf+2)/2) * (W/nf + 0.29)' nrd='0.29 / W' nrs='0.29 / W'
+ sa=0 sb=0 sd=0 mult=1 m=1 
XM4 G11 SM6 VDD VDD sky130_fd_pr__pfet_01v8 L=2 W=20 nf=1 ad='int((nf+1)/2) * W/nf * 0.29' as='int((nf+2)/2) * W/nf * 0.29'
+ pd='2*int((nf+1)/2) * (W/nf + 0.29)' ps='2*int((nf+2)/2) * (W/nf + 0.29)' nrd='0.29 / W' nrs='0.29 / W'
+ sa=0 sb=0 sd=0 mult=1 m=1 
XM5 SM6 SM6 VDD VDD sky130_fd_pr__pfet_01v8 L=2 W=20 nf=1 ad='int((nf+1)/2) * W/nf * 0.29' as='int((nf+2)/2) * W/nf * 0.29'
+ pd='2*int((nf+1)/2) * (W/nf + 0.29)' ps='2*int((nf+2)/2) * (W/nf + 0.29)' nrd='0.29 / W' nrs='0.29 / W'
+ sa=0 sb=0 sd=0 mult=1 m=1 
XM6 VDD G11 VDD VDD sky130_fd_pr__pfet_01v8 L=2 W=20 nf=1 ad='int((nf+1)/2) * W/nf * 0.29' as='int((nf+2)/2) * W/nf * 0.29'
+ pd='2*int((nf+1)/2) * (W/nf + 0.29)' ps='2*int((nf+2)/2) * (W/nf + 0.29)' nrd='0.29 / W' nrs='0.29 / W'
+ sa=0 sb=0 sd=0 mult=1 m=1 
XM7 SM7 G11 VDD VDD sky130_fd_pr__pfet_01v8 L=2 W=20 nf=1 ad='int((nf+1)/2) * W/nf * 0.29' as='int((nf+2)/2) * W/nf * 0.29'
+ pd='2*int((nf+1)/2) * (W/nf + 0.29)' ps='2*int((nf+2)/2) * (W/nf + 0.29)' nrd='0.29 / W' nrs='0.29 / W'
+ sa=0 sb=0 sd=0 mult=1 m=1 
XM12 G9 G11 VDD VDD sky130_fd_pr__pfet_01v8 L=2 W=20 nf=1 ad='int((nf+1)/2) * W/nf * 0.29' as='int((nf+2)/2) * W/nf * 0.29'
+ pd='2*int((nf+1)/2) * (W/nf + 0.29)' ps='2*int((nf+2)/2) * (W/nf + 0.29)' nrd='0.29 / W' nrs='0.29 / W'
+ sa=0 sb=0 sd=0 mult=1 m=1 
XQ2 GND GND Q2 sky130_fd_pr__pnp_05v5_W3p40L3p40
XQ1 GND GND Q2 sky130_fd_pr__pnp_05v5_W3p40L3p40
XQ4 GND GND Q2 sky130_fd_pr__pnp_05v5_W3p40L3p40
XQ5 GND GND Q2 sky130_fd_pr__pnp_05v5_W3p40L3p40
XQ6 GND GND Q2 sky130_fd_pr__pnp_05v5_W3p40L3p40
XQ7 GND GND Q2 sky130_fd_pr__pnp_05v5_W3p40L3p40
XQ8 GND GND Q2 sky130_fd_pr__pnp_05v5_W3p40L3p40
XQ9 GND GND Q2 sky130_fd_pr__pnp_05v5_W3p40L3p40
XQ3 GND GND G9 sky130_fd_pr__pnp_05v5_W3p40L3p40
XR4 R7 G9 GND sky130_fd_pr__res_xhigh_po_0p35 L=30 mult=1 m=1
XR5 Q2 SM7 GND sky130_fd_pr__res_xhigh_po_0p35 L=3 mult=1 m=1
XR6 GND Vout GND sky130_fd_pr__res_xhigh_po_0p35 L=24.57 mult=1 m=1
XR7 R2 SM7 GND sky130_fd_pr__res_xhigh_po_0p35 L=30 mult=1 m=1
XR8 GND Vref1 GND sky130_fd_pr__res_xhigh_po_0p35 L=16 mult=1 m=1
XR16 GND Vref2 GND sky130_fd_pr__res_xhigh_po_0p35 L=14 mult=1 m=1
XR18 GND R7 GND sky130_fd_pr__res_high_po_0p35 L=1.95 mult=1 m=1
XR2 GND R2 GND sky130_fd_pr__res_high_po_0p35 L=1.95 mult=1 m=1
XR17 GND Vref3 GND sky130_fd_pr__res_xhigh_po_0p35 L=12 mult=1 m=1
.ends


* expanding   symbol:  /research/mlab/chipathon/Final_schematic/biasAmp_simpClean.sym # of pins=6
* sym_path: /research/mlab/chipathon/Final_schematic/biasAmp_simpClean.sym
* sch_path: /research/mlab/chipathon/Final_schematic/biasAmp_simpClean.sch
.subckt biasAmp_simpClean  pVin nVin VDD AGND Vout VBias
*.PININFO AGND:I VDD:I VBias:I Vout:O pVin:I nVin:I
XM3 net2 net2 AGND AGND sky130_fd_pr__nfet_01v8 L=0.5 W=10 nf=1 ad='int((nf+1)/2) * W/nf * 0.29' as='int((nf+2)/2) * W/nf * 0.29'
+ pd='2*int((nf+1)/2) * (W/nf + 0.29)' ps='2*int((nf+2)/2) * (W/nf + 0.29)' nrd='0.29 / W' nrs='0.29 / W'
+ sa=0 sb=0 sd=0 mult=1 m=1 
XM4 net3 net2 AGND AGND sky130_fd_pr__nfet_01v8 L=0.5 W=10 nf=1 ad='int((nf+1)/2) * W/nf * 0.29' as='int((nf+2)/2) * W/nf * 0.29'
+ pd='2*int((nf+1)/2) * (W/nf + 0.29)' ps='2*int((nf+2)/2) * (W/nf + 0.29)' nrd='0.29 / W' nrs='0.29 / W'
+ sa=0 sb=0 sd=0 mult=1 m=1 
XM8 Vout net3 AGND AGND sky130_fd_pr__nfet_01v8 L=0.5 W=100 nf=1 ad='int((nf+1)/2) * W/nf * 0.29' as='int((nf+2)/2) * W/nf * 0.29'
+ pd='2*int((nf+1)/2) * (W/nf + 0.29)' ps='2*int((nf+2)/2) * (W/nf + 0.29)' nrd='0.29 / W' nrs='0.29 / W'
+ sa=0 sb=0 sd=0 mult=1 m=1 
XM5 net4 net2 AGND AGND sky130_fd_pr__nfet_01v8 L=0.5 W=10 nf=1 ad='int((nf+1)/2) * W/nf * 0.29' as='int((nf+2)/2) * W/nf * 0.29'
+ pd='2*int((nf+1)/2) * (W/nf + 0.29)' ps='2*int((nf+2)/2) * (W/nf + 0.29)' nrd='0.29 / W' nrs='0.29 / W'
+ sa=0 sb=0 sd=0 mult=1 m=1 
XM1 net2 nVin net1 VDD sky130_fd_pr__pfet_01v8 L=0.2 W=50 nf=1 ad='int((nf+1)/2) * W/nf * 0.29' as='int((nf+2)/2) * W/nf * 0.29'
+ pd='2*int((nf+1)/2) * (W/nf + 0.29)' ps='2*int((nf+2)/2) * (W/nf + 0.29)' nrd='0.29 / W' nrs='0.29 / W'
+ sa=0 sb=0 sd=0 mult=1 m=1 
XM2 net3 pVin net1 VDD sky130_fd_pr__pfet_01v8 L=0.2 W=50 nf=1 ad='int((nf+1)/2) * W/nf * 0.29' as='int((nf+2)/2) * W/nf * 0.29'
+ pd='2*int((nf+1)/2) * (W/nf + 0.29)' ps='2*int((nf+2)/2) * (W/nf + 0.29)' nrd='0.29 / W' nrs='0.29 / W'
+ sa=0 sb=0 sd=0 mult=1 m=1 
XM6 net4 net4 VDD VDD sky130_fd_pr__pfet_01v8 L=0.5 W=10 nf=1 ad='int((nf+1)/2) * W/nf * 0.29' as='int((nf+2)/2) * W/nf * 0.29'
+ pd='2*int((nf+1)/2) * (W/nf + 0.29)' ps='2*int((nf+2)/2) * (W/nf + 0.29)' nrd='0.29 / W' nrs='0.29 / W'
+ sa=0 sb=0 sd=0 mult=1 m=1 
XM7 Vout net4 VDD VDD sky130_fd_pr__pfet_01v8 L=0.5 W=100 nf=1 ad='int((nf+1)/2) * W/nf * 0.29' as='int((nf+2)/2) * W/nf * 0.29'
+ pd='2*int((nf+1)/2) * (W/nf + 0.29)' ps='2*int((nf+2)/2) * (W/nf + 0.29)' nrd='0.29 / W' nrs='0.29 / W'
+ sa=0 sb=0 sd=0 mult=1 m=1 
XM0 net1 net5 VDD VDD sky130_fd_pr__pfet_01v8 L=5 W=2 nf=1 ad='int((nf+1)/2) * W/nf * 0.29' as='int((nf+2)/2) * W/nf * 0.29'
+ pd='2*int((nf+1)/2) * (W/nf + 0.29)' ps='2*int((nf+2)/2) * (W/nf + 0.29)' nrd='0.29 / W' nrs='0.29 / W'
+ sa=0 sb=0 sd=0 mult=1 m=1 
XM9 net5 net5 VDD VDD sky130_fd_pr__pfet_01v8 L=5 W=2 nf=1 ad='int((nf+1)/2) * W/nf * 0.29' as='int((nf+2)/2) * W/nf * 0.29'
+ pd='2*int((nf+1)/2) * (W/nf + 0.29)' ps='2*int((nf+2)/2) * (W/nf + 0.29)' nrd='0.29 / W' nrs='0.29 / W'
+ sa=0 sb=0 sd=0 mult=1 m=1 
XM10 net5 VBias AGND AGND sky130_fd_pr__nfet_01v8 L=2 W=1 nf=1 ad='int((nf+1)/2) * W/nf * 0.29' as='int((nf+2)/2) * W/nf * 0.29'
+ pd='2*int((nf+1)/2) * (W/nf + 0.29)' ps='2*int((nf+2)/2) * (W/nf + 0.29)' nrd='0.29 / W' nrs='0.29 / W'
+ sa=0 sb=0 sd=0 mult=1 m=1 
XC1 Vout net3 sky130_fd_pr__cap_mim_m3_1 W=10.991 L=10.991 MF=1 m=1
.ends


* expanding   symbol:  /research/mlab/chipathon/Final_schematic/VCO.sym # of pins=4
* sym_path: /research/mlab/chipathon/Final_schematic/VCO.sym
* sch_path: /research/mlab/chipathon/Final_schematic/VCO.sch
.subckt VCO  VDD Out In gnd
*.PININFO VDD:B Out:O gnd:B In:I
XM2 net8 net7 VDD VDD sky130_fd_pr__pfet_01v8 L=0.30 W=6 nf=1 ad='int((nf+1)/2) * W/nf * 0.29' as='int((nf+2)/2) * W/nf * 0.29'
+ pd='2*int((nf+1)/2) * (W/nf + 0.29)' ps='2*int((nf+2)/2) * (W/nf + 0.29)' nrd='0.29 / W' nrs='0.29 / W'
+ sa=0 sb=0 sd=0 mult=1 m=1 
XM3 net2 net7 VDD VDD sky130_fd_pr__pfet_01v8 L=0.30 W=6 nf=1 ad='int((nf+1)/2) * W/nf * 0.29' as='int((nf+2)/2) * W/nf * 0.29'
+ pd='2*int((nf+1)/2) * (W/nf + 0.29)' ps='2*int((nf+2)/2) * (W/nf + 0.29)' nrd='0.29 / W' nrs='0.29 / W'
+ sa=0 sb=0 sd=0 mult=1 m=1 
XM4 net4 net7 VDD VDD sky130_fd_pr__pfet_01v8 L=0.30 W=6 nf=1 ad='int((nf+1)/2) * W/nf * 0.29' as='int((nf+2)/2) * W/nf * 0.29'
+ pd='2*int((nf+1)/2) * (W/nf + 0.29)' ps='2*int((nf+2)/2) * (W/nf + 0.29)' nrd='0.29 / W' nrs='0.29 / W'
+ sa=0 sb=0 sd=0 mult=1 m=1 
XM5 node1 node3 net8 VDD sky130_fd_pr__pfet_01v8 L=0.30 W=6 nf=1 ad='int((nf+1)/2) * W/nf * 0.29' as='int((nf+2)/2) * W/nf * 0.29'
+ pd='2*int((nf+1)/2) * (W/nf + 0.29)' ps='2*int((nf+2)/2) * (W/nf + 0.29)' nrd='0.29 / W' nrs='0.29 / W'
+ sa=0 sb=0 sd=0 mult=1 m=1 
XM6 node2 node1 net2 VDD sky130_fd_pr__pfet_01v8 L=0.30 W=6 nf=1 ad='int((nf+1)/2) * W/nf * 0.29' as='int((nf+2)/2) * W/nf * 0.29'
+ pd='2*int((nf+1)/2) * (W/nf + 0.29)' ps='2*int((nf+2)/2) * (W/nf + 0.29)' nrd='0.29 / W' nrs='0.29 / W'
+ sa=0 sb=0 sd=0 mult=1 m=1 
XM7 node3 node2 net4 VDD sky130_fd_pr__pfet_01v8 L=0.30 W=6 nf=1 ad='int((nf+1)/2) * W/nf * 0.29' as='int((nf+2)/2) * W/nf * 0.29'
+ pd='2*int((nf+1)/2) * (W/nf + 0.29)' ps='2*int((nf+2)/2) * (W/nf + 0.29)' nrd='0.29 / W' nrs='0.29 / W'
+ sa=0 sb=0 sd=0 mult=1 m=1 
XM8 net6 node3 VDD VDD sky130_fd_pr__pfet_01v8 L=0.30 W=7 nf=1 ad='int((nf+1)/2) * W/nf * 0.29' as='int((nf+2)/2) * W/nf * 0.29'
+ pd='2*int((nf+1)/2) * (W/nf + 0.29)' ps='2*int((nf+2)/2) * (W/nf + 0.29)' nrd='0.29 / W' nrs='0.29 / W'
+ sa=0 sb=0 sd=0 mult=1 m=1 
XM9 Out net6 VDD VDD sky130_fd_pr__pfet_01v8 L=0.30 W=7 nf=1 ad='int((nf+1)/2) * W/nf * 0.29' as='int((nf+2)/2) * W/nf * 0.29'
+ pd='2*int((nf+1)/2) * (W/nf + 0.29)' ps='2*int((nf+2)/2) * (W/nf + 0.29)' nrd='0.29 / W' nrs='0.29 / W'
+ sa=0 sb=0 sd=0 mult=1 m=1 
XM18 node1 node3 net1 gnd sky130_fd_pr__nfet_01v8 L=0.30 W=3 nf=1 ad='int((nf+1)/2) * W/nf * 0.29' as='int((nf+2)/2) * W/nf * 0.29'
+ pd='2*int((nf+1)/2) * (W/nf + 0.29)' ps='2*int((nf+2)/2) * (W/nf + 0.29)' nrd='0.29 / W' nrs='0.29 / W'
+ sa=0 sb=0 sd=0 mult=1 m=1 
XM10 node2 node1 net3 gnd sky130_fd_pr__nfet_01v8 L=0.30 W=3 nf=1 ad='int((nf+1)/2) * W/nf * 0.29' as='int((nf+2)/2) * W/nf * 0.29'
+ pd='2*int((nf+1)/2) * (W/nf + 0.29)' ps='2*int((nf+2)/2) * (W/nf + 0.29)' nrd='0.29 / W' nrs='0.29 / W'
+ sa=0 sb=0 sd=0 mult=1 m=1 
XM11 node3 node2 net5 gnd sky130_fd_pr__nfet_01v8 L=0.30 W=3 nf=1 ad='int((nf+1)/2) * W/nf * 0.29' as='int((nf+2)/2) * W/nf * 0.29'
+ pd='2*int((nf+1)/2) * (W/nf + 0.29)' ps='2*int((nf+2)/2) * (W/nf + 0.29)' nrd='0.29 / W' nrs='0.29 / W'
+ sa=0 sb=0 sd=0 mult=1 m=1 
XM12 net6 node3 gnd gnd sky130_fd_pr__nfet_01v8 L=0.30 W=3.5 nf=1 ad='int((nf+1)/2) * W/nf * 0.29' as='int((nf+2)/2) * W/nf * 0.29'
+ pd='2*int((nf+1)/2) * (W/nf + 0.29)' ps='2*int((nf+2)/2) * (W/nf + 0.29)' nrd='0.29 / W' nrs='0.29 / W'
+ sa=0 sb=0 sd=0 mult=1 m=1 
XM13 Out net6 gnd gnd sky130_fd_pr__nfet_01v8 L=0.30 W=3.5 nf=1 ad='int((nf+1)/2) * W/nf * 0.29' as='int((nf+2)/2) * W/nf * 0.29'
+ pd='2*int((nf+1)/2) * (W/nf + 0.29)' ps='2*int((nf+2)/2) * (W/nf + 0.29)' nrd='0.29 / W' nrs='0.29 / W'
+ sa=0 sb=0 sd=0 mult=1 m=1 
XM14 net5 In gnd gnd sky130_fd_pr__nfet_01v8 L=0.30 W=3 nf=1 ad='int((nf+1)/2) * W/nf * 0.29' as='int((nf+2)/2) * W/nf * 0.29'
+ pd='2*int((nf+1)/2) * (W/nf + 0.29)' ps='2*int((nf+2)/2) * (W/nf + 0.29)' nrd='0.29 / W' nrs='0.29 / W'
+ sa=0 sb=0 sd=0 mult=1 m=1 
XM15 net3 In gnd gnd sky130_fd_pr__nfet_01v8 L=0.30 W=3 nf=1 ad='int((nf+1)/2) * W/nf * 0.29' as='int((nf+2)/2) * W/nf * 0.29'
+ pd='2*int((nf+1)/2) * (W/nf + 0.29)' ps='2*int((nf+2)/2) * (W/nf + 0.29)' nrd='0.29 / W' nrs='0.29 / W'
+ sa=0 sb=0 sd=0 mult=1 m=1 
XM16 net1 In gnd gnd sky130_fd_pr__nfet_01v8 L=0.30 W=3 nf=1 ad='int((nf+1)/2) * W/nf * 0.29' as='int((nf+2)/2) * W/nf * 0.29'
+ pd='2*int((nf+1)/2) * (W/nf + 0.29)' ps='2*int((nf+2)/2) * (W/nf + 0.29)' nrd='0.29 / W' nrs='0.29 / W'
+ sa=0 sb=0 sd=0 mult=1 m=1 
XM1 net7 In gnd gnd sky130_fd_pr__nfet_01v8 L=0.3 W=1.8 nf=1 ad='int((nf+1)/2) * W/nf * 0.29' as='int((nf+2)/2) * W/nf * 0.29'
+ pd='2*int((nf+1)/2) * (W/nf + 0.29)' ps='2*int((nf+2)/2) * (W/nf + 0.29)' nrd='0.29 / W' nrs='0.29 / W'
+ sa=0 sb=0 sd=0 mult=1 m=1 
XM17 net7 net7 VDD VDD sky130_fd_pr__pfet_01v8 L=0.3 W=2.4 nf=1 ad='int((nf+1)/2) * W/nf * 0.29' as='int((nf+2)/2) * W/nf * 0.29'
+ pd='2*int((nf+1)/2) * (W/nf + 0.29)' ps='2*int((nf+2)/2) * (W/nf + 0.29)' nrd='0.29 / W' nrs='0.29 / W'
+ sa=0 sb=0 sd=0 mult=1 m=1 
.ends


* expanding   symbol:  /research/mlab/chipathon/Final_schematic/mixer_schematic.sym # of pins=7
* sym_path: /research/mlab/chipathon/Final_schematic/mixer_schematic.sym
* sch_path: /research/mlab/chipathon/Final_schematic/mixer_schematic.sch
.subckt mixer_schematic  VDD IF_N IF_P LO_P LO_N RF GND
*.PININFO LO_P:I LO_N:I RF:I IF_P:O IF_N:O VDD:I GND:I
XM2 IF_P LO_P mid GND sky130_fd_pr__nfet_01v8 L=0.3611 W=9.028 nf=1 ad='int((nf+1)/2) * W/nf * 0.29'
+ as='int((nf+2)/2) * W/nf * 0.29' pd='2*int((nf+1)/2) * (W/nf + 0.29)' ps='2*int((nf+2)/2) * (W/nf + 0.29)'
+ nrd='0.29 / W' nrs='0.29 / W' sa=0 sb=0 sd=0 mult=4 m=4 
XM1 mid RF GND GND sky130_fd_pr__nfet_01v8 L=.3611 W=18.055 nf=1 ad='int((nf+1)/2) * W/nf * 0.29' as='int((nf+2)/2) * W/nf * 0.29'
+ pd='2*int((nf+1)/2) * (W/nf + 0.29)' ps='2*int((nf+2)/2) * (W/nf + 0.29)' nrd='0.29 / W' nrs='0.29 / W'
+ sa=0 sb=0 sd=0 mult=4 m=4 
XM3 IF_N LO_N mid GND sky130_fd_pr__nfet_01v8 L=0.3611 W=9.028 nf=1 ad='int((nf+1)/2) * W/nf * 0.29'
+ as='int((nf+2)/2) * W/nf * 0.29' pd='2*int((nf+1)/2) * (W/nf + 0.29)' ps='2*int((nf+2)/2) * (W/nf + 0.29)'
+ nrd='0.29 / W' nrs='0.29 / W' sa=0 sb=0 sd=0 mult=4 m=4 
XC2 IF_N GND sky130_fd_pr__cap_mim_m3_1 W=27.4 L=27.4 MF=1 m=1
XC1 IF_P GND sky130_fd_pr__cap_mim_m3_1 W=27.4 L=27.4 MF=1 m=1
XR3 IF_N VDD GND sky130_fd_pr__res_high_po_0p35 L=0.6 mult=1 m=1
XR4 IF_P VDD GND sky130_fd_pr__res_high_po_0p35 L=0.6 mult=1 m=1
.ends


* expanding   symbol:  /research/mlab/chipathon/Final_schematic/LNA.sym # of pins=4
* sym_path: /research/mlab/chipathon/Final_schematic/LNA.sym
* sch_path: /research/mlab/chipathon/Final_schematic/LNA.sch
.subckt LNA  VDD RFOUT RFIN GND
*.PININFO RFOUT:O RFIN:I GND:B VDD:B
XM1 net1 net2 GND GND sky130_fd_pr__nfet_01v8 L=0.28 W=24.8 nf=1 ad='int((nf+1)/2) * W/nf * 0.29' as='int((nf+2)/2) * W/nf * 0.29'
+ pd='2*int((nf+1)/2) * (W/nf + 0.29)' ps='2*int((nf+2)/2) * (W/nf + 0.29)' nrd='0.29 / W' nrs='0.29 / W'
+ sa=0 sb=0 sd=0 mult=4 m=4 
XM2 VDD VDD net1 GND sky130_fd_pr__nfet_01v8 L=0.28 W=24.8 nf=1 ad='int((nf+1)/2) * W/nf * 0.29' as='int((nf+2)/2) * W/nf * 0.29'
+ pd='2*int((nf+1)/2) * (W/nf + 0.29)' ps='2*int((nf+2)/2) * (W/nf + 0.29)' nrd='0.29 / W' nrs='0.29 / W'
+ sa=0 sb=0 sd=0 mult=4 m=4 
XM3 net3 net3 GND GND sky130_fd_pr__nfet_01v8 L=0.3 W=6.67 nf=1 ad='int((nf+1)/2) * W/nf * 0.29' as='int((nf+2)/2) * W/nf * 0.29'
+ pd='2*int((nf+1)/2) * (W/nf + 0.29)' ps='2*int((nf+2)/2) * (W/nf + 0.29)' nrd='0.29 / W' nrs='0.29 / W'
+ sa=0 sb=0 sd=0 mult=1 m=1 
XC2 net2 GND sky130_fd_pr__cap_mim_m3_1 W=3.2 L=3.2 MF=9 m=9
XC3 RFIN net2 sky130_fd_pr__cap_mim_m3_1 W=7.1 L=7.1 MF=16 m=16
XC1 VDD VDD sky130_fd_pr__cap_mim_m3_1 W=3.9 L=3.9 MF=9 m=9
XC4 VDD RFOUT sky130_fd_pr__cap_mim_m3_1 W=3.9 L=3.9 MF=9 m=9
XR1 net2 net3 GND sky130_fd_pr__res_xhigh_po_0p35 L=5.1 mult=1 m=1
XR2 net3 VDD GND sky130_fd_pr__res_xhigh_po_0p35 L=0.7 mult=1 m=1
.ends


* expanding   symbol:  /research/mlab/chipathon/Final_schematic/FilterOpAmp.sym # of pins=11
* sym_path: /research/mlab/chipathon/Final_schematic/FilterOpAmp.sym
* sch_path: /research/mlab/chipathon/Final_schematic/FilterOpAmp.sch
.subckt FilterOpAmp  VDD Vabn Vabp Vop Von Vip Vin Vbiasn Vbp Vcm GND
*.PININFO VDD:B GND:B Vcm:I Vbiasn:I Vbp:I Vin:I Vip:I Vop:O Von:O Vabn:O Vabp:O
XM17s net2 net3 VDD VDD sky130_fd_pr__pfet_01v8 L=0.3 W=9.6 nf=1 ad='int((nf+1)/2) * W/nf * 0.29' as='int((nf+2)/2) * W/nf * 0.29'
+ pd='2*int((nf+1)/2) * (W/nf + 0.29)' ps='2*int((nf+2)/2) * (W/nf + 0.29)' nrd='0.29 / W' nrs='0.29 / W'
+ sa=0 sb=0 sd=0 mult=1 m=1 
XM12s Vabn net6 net1 VDD sky130_fd_pr__pfet_01v8 L=0.3 W=9.6 nf=1 ad='int((nf+1)/2) * W/nf * 0.29' as='int((nf+2)/2) * W/nf * 0.29'
+ pd='2*int((nf+1)/2) * (W/nf + 0.29)' ps='2*int((nf+2)/2) * (W/nf + 0.29)' nrd='0.29 / W' nrs='0.29 / W'
+ sa=0 sb=0 sd=0 mult=1 m=1 
XM10s net3 net3 net4 GND sky130_fd_pr__nfet_01v8 L=0.3 W=3 nf=1 ad='int((nf+1)/2) * W/nf * 0.29' as='int((nf+2)/2) * W/nf * 0.29'
+ pd='2*int((nf+1)/2) * (W/nf + 0.29)' ps='2*int((nf+2)/2) * (W/nf + 0.29)' nrd='0.29 / W' nrs='0.29 / W'
+ sa=0 sb=0 sd=0 mult=1 m=1 
XM1q net8 Vbiasn GND GND sky130_fd_pr__nfet_01v8 L=0.3 W=3 nf=1 ad='int((nf+1)/2) * W/nf * 0.29' as='int((nf+2)/2) * W/nf * 0.29'
+ pd='2*int((nf+1)/2) * (W/nf + 0.29)' ps='2*int((nf+2)/2) * (W/nf + 0.29)' nrd='0.29 / W' nrs='0.29 / W'
+ sa=0 sb=0 sd=0 mult=1 m=1 
XM5s net5 Vip net8 GND sky130_fd_pr__nfet_01v8 L=0.3 W=3 nf=1 ad='int((nf+1)/2) * W/nf * 0.29' as='int((nf+2)/2) * W/nf * 0.29'
+ pd='2*int((nf+1)/2) * (W/nf + 0.29)' ps='2*int((nf+2)/2) * (W/nf + 0.29)' nrd='0.29 / W' nrs='0.29 / W'
+ sa=0 sb=0 sd=0 mult=1 m=1 
XM6s net4 Vcm net9 GND sky130_fd_pr__nfet_01v8 L=0.3 W=3 nf=1 ad='int((nf+1)/2) * W/nf * 0.29' as='int((nf+2)/2) * W/nf * 0.29'
+ pd='2*int((nf+1)/2) * (W/nf + 0.29)' ps='2*int((nf+2)/2) * (W/nf + 0.29)' nrd='0.29 / W' nrs='0.29 / W'
+ sa=0 sb=0 sd=0 mult=1 m=1 
XM9s Vabn net3 net5 GND sky130_fd_pr__nfet_01v8 L=0.3 W=3 nf=1 ad='int((nf+1)/2) * W/nf * 0.29' as='int((nf+2)/2) * W/nf * 0.29'
+ pd='2*int((nf+1)/2) * (W/nf + 0.29)' ps='2*int((nf+2)/2) * (W/nf + 0.29)' nrd='0.29 / W' nrs='0.29 / W'
+ sa=0 sb=0 sd=0 mult=1 m=1 
XM2s net9 Vbiasn GND GND sky130_fd_pr__nfet_01v8 L=0.6 W=3 nf=1 ad='int((nf+1)/2) * W/nf * 0.29' as='int((nf+2)/2) * W/nf * 0.29'
+ pd='2*int((nf+1)/2) * (W/nf + 0.29)' ps='2*int((nf+2)/2) * (W/nf + 0.29)' nrd='0.29 / W' nrs='0.29 / W'
+ sa=0 sb=0 sd=0 mult=1 m=1 
XM14s net6 net6 VDD VDD sky130_fd_pr__pfet_01v8 L=0.9 W=4.8 nf=1 ad='int((nf+1)/2) * W/nf * 0.29' as='int((nf+2)/2) * W/nf * 0.29'
+ pd='2*int((nf+1)/2) * (W/nf + 0.29)' ps='2*int((nf+2)/2) * (W/nf + 0.29)' nrd='0.29 / W' nrs='0.29 / W'
+ sa=0 sb=0 sd=0 mult=1 m=1 
XM18s net7 net3 VDD VDD sky130_fd_pr__pfet_01v8 L=0.3 W=9.6 nf=1 ad='int((nf+1)/2) * W/nf * 0.29' as='int((nf+2)/2) * W/nf * 0.29'
+ pd='2*int((nf+1)/2) * (W/nf + 0.29)' ps='2*int((nf+2)/2) * (W/nf + 0.29)' nrd='0.29 / W' nrs='0.29 / W'
+ sa=0 sb=0 sd=0 mult=1 m=1 